** sch_path: /foss/designs/ihp_INI_project/INI_Block/INI_Block.sch
.subckt INI_Block SPI_CS_N SPI_MISO SPI_SCK SPI_MOSI SPI_RST_N VSS VDD MEM_bufferbias C2F_REQ C2F_COMP C2F_ACK NN1_REQ NN2_REQ
+ NN3_REQ NN1_ACK NN2_ACK NN3_ACK V2I_INN V2I_INP NN1_MEM_PROB NN2_MEM_PROB NN3_MEM_PROB BG_100mV BG_BIAS BG_100kRES BG_PROB
*.PININFO SPI_CS_N:I SPI_MISO:O SPI_SCK:I SPI_MOSI:I SPI_RST_N:I VSS:B VDD:B MEM_bufferbias:I C2F_REQ:O C2F_COMP:O C2F_ACK:I
*+ NN1_REQ:O NN2_REQ:O NN3_REQ:O NN1_ACK:I NN2_ACK:I NN3_ACK:I V2I_INN:I V2I_INP:I NN1_MEM_PROB:O NN2_MEM_PROB:O NN3_MEM_PROB:O BG_100mV:I
*+ BG_BIAS:I BG_100kRES:I BG_PROB:O
xspi SPI_CS_N SPI_MISO mosi SPI_RST_N SPI_SCK VDD bias_gen_spi_top
* noconn #net1
* noconn #net4
xiniblockanalog BIASGEN_en_VS[10] BIASGEN_en_VS[9] BIASGEN_en_VS[8] BIASGEN_en_VS[7] BIASGEN_en_VS[6] BIASGEN_en_VS[5]
+ BIASGEN_en_VS[4] BIASGEN_en_VS[3] BIASGEN_en_VS[2] BIASGEN_en_VS[1] BIASGEN_en_VS[0] BIASGEN_BYP_en_VS[10] BIASGEN_BYP_en_VS[9]
+ BIASGEN_BYP_en_VS[8] BIASGEN_BYP_en_VS[7] BIASGEN_BYP_en_VS[6] BIASGEN_BYP_en_VS[5] BIASGEN_BYP_en_VS[4] BIASGEN_BYP_en_VS[3] BIASGEN_BYP_en_VS[2]
+ BIASGEN_BYP_en_VS[1] BIASGEN_BYP_en_VS[0] BIASGEN_EXT_REF_en_VS[10] BIASGEN_EXT_REF_en_VS[9] BIASGEN_EXT_REF_en_VS[8] BIASGEN_EXT_REF_en_VS[7]
+ BIASGEN_EXT_REF_en_VS[6] BIASGEN_EXT_REF_en_VS[5] BIASGEN_EXT_REF_en_VS[4] BIASGEN_EXT_REF_en_VS[3] BIASGEN_EXT_REF_en_VS[2] BIASGEN_EXT_REF_en_VS[1]
+ BIASGEN_EXT_REF_en_VS[0] en_VS_7[10] en_VS_7[9] en_VS_7[8] en_VS_7[7] en_VS_7[6] en_VS_7[5] en_VS_7[4] en_VS_7[3] en_VS_7[2] en_VS_7[1] en_VS_7[0]
+ en_VS_9[10] en_VS_9[9] en_VS_9[8] en_VS_9[7] en_VS_9[6] en_VS_9[5] en_VS_9[4] en_VS_9[3] en_VS_9[2] en_VS_9[1] en_VS_9[0] en_VS_1[10]
+ en_VS_1[9] en_VS_1[8] en_VS_1[7] en_VS_1[6] en_VS_1[5] en_VS_1[4] en_VS_1[3] en_VS_1[2] en_VS_1[1] en_VS_1[0] en_VS_6[10] en_VS_6[9]
+ en_VS_6[8] en_VS_6[7] en_VS_6[6] en_VS_6[5] en_VS_6[4] en_VS_6[3] en_VS_6[2] en_VS_6[1] en_VS_6[0] en_VS_5[10] en_VS_5[9] en_VS_5[8]
+ en_VS_5[7] en_VS_5[6] en_VS_5[5] en_VS_5[4] en_VS_5[3] en_VS_5[2] en_VS_5[1] en_VS_5[0] en_VS_3[10] en_VS_3[9] en_VS_3[8] en_VS_3[7]
+ en_VS_3[6] en_VS_3[5] en_VS_3[4] en_VS_3[3] en_VS_3[2] en_VS_3[1] en_VS_3[0] en_VS_8[10] en_VS_8[9] en_VS_8[8] en_VS_8[7] en_VS_8[6]
+ en_VS_8[5] en_VS_8[4] en_VS_8[3] en_VS_8[2] en_VS_8[1] en_VS_8[0] en_VS_2[10] en_VS_2[9] en_VS_2[8] en_VS_2[7] en_VS_2[6] en_VS_2[5]
+ en_VS_2[4] en_VS_2[3] en_VS_2[2] en_VS_2[1] en_VS_2[0] en_VS_4[10] en_VS_4[9] en_VS_4[8] en_VS_4[7] en_VS_4[6] en_VS_4[5] en_VS_4[4]
+ en_VS_4[3] en_VS_4[2] en_VS_4[1] en_VS_4[0] BG_PROB NN2_MEM_PROB NN3_REQ NN3_ACK NN3_MEM_PROB NN2_REQ NN2_ACK VDD NN1_MEM_PROB V2I_INP
+ NN1_REQ V2I_INN BG_100kRES NN1_ACK VSS BG_BIAS BG_100mV C2F_REQ C2F_ACK C2F_COMP MEM_bufferbias INI_Block_analog
* noconn #net3
* noconn #net2
.ends

* expanding   symbol:  bias_gen_spi_top.sym # of pins=23
** sym_path: /foss/designs/ihp_INI_project/INI_Block/bias_gen_spi_top.sym
$ Spice netlist generated by v2lvs
$ v2021.3_35.19    Wed Sep 1 15:25:12 PDT 2021
.INCLUDE "./spice.inc" 
*.BUSDELIMITER [ 

.SUBCKT bias_gen_spi_top cs_n miso mosi \reg_out10[0] \reg_out10[10] 
+ \reg_out10[1] \reg_out10[2] \reg_out10[3] \reg_out10[4] \reg_out10[5] 
+ \reg_out10[6] \reg_out10[7] \reg_out10[8] \reg_out10[9] \reg_out11[0] 
+ \reg_out11[10] \reg_out11[1] \reg_out11[2] \reg_out11[3] \reg_out11[4] 
+ \reg_out11[5] \reg_out11[6] \reg_out11[7] \reg_out11[8] \reg_out11[9] 
+ \reg_out12[0] \reg_out12[10] \reg_out12[1] \reg_out12[2] \reg_out12[3] 
+ \reg_out12[4] \reg_out12[5] \reg_out12[6] \reg_out12[7] \reg_out12[8] 
+ \reg_out12[9] \reg_out13[0] \reg_out13[10] \reg_out13[1] \reg_out13[2] 
+ \reg_out13[3] \reg_out13[4] \reg_out13[5] \reg_out13[6] \reg_out13[7] 
+ \reg_out13[8] \reg_out13[9] \reg_out14[0] \reg_out14[10] \reg_out14[1] 
+ \reg_out14[2] \reg_out14[3] \reg_out14[4] \reg_out14[5] \reg_out14[6] 
+ \reg_out14[7] \reg_out14[8] \reg_out14[9] \reg_out15[0] \reg_out15[10] 
+ \reg_out15[1] \reg_out15[2] \reg_out15[3] \reg_out15[4] \reg_out15[5] 
+ \reg_out15[6] \reg_out15[7] \reg_out15[8] \reg_out15[9] \reg_out16[0] 
+ \reg_out16[10] \reg_out16[1] \reg_out16[2] \reg_out16[3] \reg_out16[4] 
+ \reg_out16[5] \reg_out16[6] \reg_out16[7] \reg_out16[8] \reg_out16[9] 
+ \reg_out1[0] \reg_out1[10] \reg_out1[1] \reg_out1[2] \reg_out1[3] 
+ \reg_out1[4] \reg_out1[5] \reg_out1[6] \reg_out1[7] \reg_out1[8] \reg_out1[9] 
+ \reg_out2[0] \reg_out2[10] \reg_out2[1] \reg_out2[2] \reg_out2[3] 
+ \reg_out2[4] \reg_out2[5] \reg_out2[6] \reg_out2[7] \reg_out2[8] \reg_out2[9] 
+ \reg_out3[0] \reg_out3[10] \reg_out3[1] \reg_out3[2] \reg_out3[3] 
+ \reg_out3[4] \reg_out3[5] \reg_out3[6] \reg_out3[7] \reg_out3[8] \reg_out3[9] 
+ \reg_out4[0] \reg_out4[10] \reg_out4[1] \reg_out4[2] \reg_out4[3] 
+ \reg_out4[4] \reg_out4[5] \reg_out4[6] \reg_out4[7] \reg_out4[8] \reg_out4[9] 
+ \reg_out5[0] \reg_out5[10] \reg_out5[1] \reg_out5[2] \reg_out5[3] 
+ \reg_out5[4] \reg_out5[5] \reg_out5[6] \reg_out5[7] \reg_out5[8] \reg_out5[9] 
+ \reg_out6[0] \reg_out6[10] \reg_out6[1] \reg_out6[2] \reg_out6[3] 
+ \reg_out6[4] \reg_out6[5] \reg_out6[6] \reg_out6[7] \reg_out6[8] \reg_out6[9] 
+ \reg_out7[0] \reg_out7[10] \reg_out7[1] \reg_out7[2] \reg_out7[3] 
+ \reg_out7[4] \reg_out7[5] \reg_out7[6] \reg_out7[7] \reg_out7[8] \reg_out7[9] 
+ \reg_out8[0] \reg_out8[10] \reg_out8[1] \reg_out8[2] \reg_out8[3] 
+ \reg_out8[4] \reg_out8[5] \reg_out8[6] \reg_out8[7] \reg_out8[8] \reg_out8[9] 
+ \reg_out9[0] \reg_out9[10] \reg_out9[1] \reg_out9[2] \reg_out9[3] 
+ \reg_out9[4] \reg_out9[5] \reg_out9[6] \reg_out9[7] \reg_out9[8] \reg_out9[9] 
+ rst_n sck VDD VSS 
X_0977_ sg13cmos5l_nor4_1 $PINS A=\u_spi_core.bit_cnt[1] 
+ B=\u_spi_core.bit_cnt[0] C=\u_spi_core.bit_cnt[2] D=\u_spi_core.bit_cnt[3] 
+ Y=_0555_ VDD=VDD VSS=VSS 
X_0979_ sg13cmos5l_nor2b_1 $PINS A=\u_spi_core.bit_cnt[5] 
+ B_N=\u_spi_core.bit_cnt[4] Y=_0557_ VDD=VDD VSS=VSS 
X_0980_ sg13cmos5l_nand2_1 $PINS Y=_0558_ A=_0555_ B=_0557_ VDD=VDD VSS=VSS 
X_0982_ sg13cmos5l_inv_1 $PINS VDD=VDD Y=_0560_ A=\bias_gen_reg_din[14] VSS=VSS 
X_0983_ sg13cmos5l_nor3_1 $PINS A=_0560_ B=\bias_gen_reg_din[15] 
+ C=\u_spi_core.shift_in[15] Y=_0561_ VDD=VDD VSS=VSS 
X_0985_ sg13cmos5l_and2_1 $PINS A=_0555_ B=_0557_ X=_0563_ VDD=VDD VSS=VSS 
X_0987_ sg13cmos5l_and3_1 $PINS X=_0565_ A=\u_spi_core.read_data[9] B=net355 
+ C=net353 VDD=VDD VSS=VSS 
X_0988_ sg13cmos5l_a21oi_1 $PINS VSS=VSS VDD=VDD A1=\u_spi_core.miso_shift[8] 
+ A2=net356 Y=_0566_ B1=_0565_ 
X_0989_ sg13cmos5l_nand3b_1 $PINS B=\u_spi_core.bit_cnt[5] C=_0555_ Y=_0567_ 
+ VDD=VDD VSS=VSS A_N=\u_spi_core.bit_cnt[4] 
X_0990_ sg13cmos5l_nand2b_1 $PINS Y=_0568_ B=_0567_ A_N=_0557_ VDD=VDD VSS=VSS 
X_0992_ sg13cmos5l_nor2_1 $PINS A=\u_spi_core.miso_shift[9] B=net341 Y=_0570_ 
+ VDD=VDD VSS=VSS 
X_0993_ sg13cmos5l_a21oi_1 $PINS VSS=VSS VDD=VDD A1=_0566_ A2=net341 Y=_0239_ 
+ B1=_0570_ 
X_0995_ sg13cmos5l_and3_1 $PINS X=_0572_ A=\u_spi_core.read_data[8] B=net355 
+ C=net353 VDD=VDD VSS=VSS 
X_0996_ sg13cmos5l_a21oi_1 $PINS VSS=VSS VDD=VDD A1=\u_spi_core.miso_shift[7] 
+ A2=net356 Y=_0573_ B1=_0572_ 
X_0997_ sg13cmos5l_nor2_1 $PINS A=\u_spi_core.miso_shift[8] B=net340 Y=_0574_ 
+ VDD=VDD VSS=VSS 
X_0998_ sg13cmos5l_a21oi_1 $PINS VSS=VSS VDD=VDD A1=net340 A2=_0573_ Y=_0238_ 
+ B1=_0574_ 
X_0999_ sg13cmos5l_and3_1 $PINS X=_0575_ A=\u_spi_core.read_data[7] B=net355 
+ C=net353 VDD=VDD VSS=VSS 
X_1000_ sg13cmos5l_a21oi_1 $PINS VSS=VSS VDD=VDD A1=\u_spi_core.miso_shift[6] 
+ A2=net356 Y=_0576_ B1=_0575_ 
X_1001_ sg13cmos5l_nor2_1 $PINS A=\u_spi_core.miso_shift[7] B=net340 Y=_0577_ 
+ VDD=VDD VSS=VSS 
X_1002_ sg13cmos5l_a21oi_1 $PINS VSS=VSS VDD=VDD A1=net340 A2=_0576_ Y=_0237_ 
+ B1=_0577_ 
X_1003_ sg13cmos5l_and3_1 $PINS X=_0578_ A=\u_spi_core.read_data[6] B=net355 
+ C=net353 VDD=VDD VSS=VSS 
X_1004_ sg13cmos5l_a21oi_1 $PINS VSS=VSS VDD=VDD A1=\u_spi_core.miso_shift[5] 
+ A2=net356 Y=_0579_ B1=_0578_ 
X_1005_ sg13cmos5l_nor2_1 $PINS A=\u_spi_core.miso_shift[6] B=net340 Y=_0580_ 
+ VDD=VDD VSS=VSS 
X_1006_ sg13cmos5l_a21oi_1 $PINS VSS=VSS VDD=VDD A1=net340 A2=_0579_ Y=_0236_ 
+ B1=_0580_ 
X_1007_ sg13cmos5l_and3_1 $PINS X=_0581_ A=\u_spi_core.read_data[5] B=net355 
+ C=net353 VDD=VDD VSS=VSS 
X_1008_ sg13cmos5l_a21oi_1 $PINS VSS=VSS VDD=VDD A1=\u_spi_core.miso_shift[4] 
+ A2=net356 Y=_0582_ B1=_0581_ 
X_1010_ sg13cmos5l_nor2_1 $PINS A=\u_spi_core.miso_shift[5] B=net340 Y=_0584_ 
+ VDD=VDD VSS=VSS 
X_1011_ sg13cmos5l_a21oi_1 $PINS VSS=VSS VDD=VDD A1=net340 A2=_0582_ Y=_0235_ 
+ B1=_0584_ 
X_1012_ sg13cmos5l_and3_1 $PINS X=_0585_ A=\u_spi_core.read_data[4] B=net355 
+ C=net353 VDD=VDD VSS=VSS 
X_1013_ sg13cmos5l_a21oi_1 $PINS VSS=VSS VDD=VDD A1=\u_spi_core.miso_shift[3] 
+ A2=net356 Y=_0586_ B1=_0585_ 
X_1014_ sg13cmos5l_nor2_1 $PINS A=\u_spi_core.miso_shift[4] B=net341 Y=_0587_ 
+ VDD=VDD VSS=VSS 
X_1015_ sg13cmos5l_a21oi_1 $PINS VSS=VSS VDD=VDD A1=net341 A2=_0586_ Y=_0234_ 
+ B1=_0587_ 
X_1016_ sg13cmos5l_and3_1 $PINS X=_0588_ A=\u_spi_core.read_data[3] B=_0561_ 
+ C=net354 VDD=VDD VSS=VSS 
X_1017_ sg13cmos5l_a21oi_1 $PINS VSS=VSS VDD=VDD A1=\u_spi_core.miso_shift[2] 
+ A2=_0558_ Y=_0589_ B1=_0588_ 
X_1018_ sg13cmos5l_nor2_1 $PINS A=\u_spi_core.miso_shift[3] B=net342 Y=_0590_ 
+ VDD=VDD VSS=VSS 
X_1019_ sg13cmos5l_a21oi_1 $PINS VSS=VSS VDD=VDD A1=net342 A2=_0589_ Y=_0233_ 
+ B1=_0590_ 
X_1020_ sg13cmos5l_and3_1 $PINS X=_0591_ A=\u_spi_core.read_data[2] B=net355 
+ C=net353 VDD=VDD VSS=VSS 
X_1021_ sg13cmos5l_a21oi_1 $PINS VSS=VSS VDD=VDD A1=\u_spi_core.miso_shift[1] 
+ A2=net356 Y=_0592_ B1=_0591_ 
X_1022_ sg13cmos5l_nor2_1 $PINS A=\u_spi_core.miso_shift[2] B=net342 Y=_0593_ 
+ VDD=VDD VSS=VSS 
X_1023_ sg13cmos5l_a21oi_1 $PINS VSS=VSS VDD=VDD A1=net341 A2=_0592_ Y=_0232_ 
+ B1=_0593_ 
X_1024_ sg13cmos5l_and3_1 $PINS X=_0594_ A=\u_spi_core.read_data[1] B=_0561_ 
+ C=net354 VDD=VDD VSS=VSS 
X_1025_ sg13cmos5l_a21oi_1 $PINS VSS=VSS VDD=VDD A1=\u_spi_core.miso_shift[0] 
+ A2=_0558_ Y=_0595_ B1=_0594_ 
X_1026_ sg13cmos5l_nor2_1 $PINS A=\u_spi_core.miso_shift[1] B=net342 Y=_0596_ 
+ VDD=VDD VSS=VSS 
X_1027_ sg13cmos5l_a21oi_1 $PINS VSS=VSS VDD=VDD A1=net342 A2=_0595_ Y=_0231_ 
+ B1=_0596_ 
X_1028_ sg13cmos5l_and3_1 $PINS X=_0597_ A=\u_spi_core.read_data[15] B=_0561_ 
+ C=net354 VDD=VDD VSS=VSS 
X_1029_ sg13cmos5l_a21oi_1 $PINS VSS=VSS VDD=VDD A1=\u_spi_core.miso_shift[14] 
+ A2=_0558_ Y=_0598_ B1=_0597_ 
X_1030_ sg13cmos5l_nor2_1 $PINS A=\u_spi_core.miso_shift[15] B=_0568_ Y=_0599_ 
+ VDD=VDD VSS=VSS 
X_1031_ sg13cmos5l_a21oi_1 $PINS VSS=VSS VDD=VDD A1=_0568_ A2=_0598_ Y=_0230_ 
+ B1=_0599_ 
X_1032_ sg13cmos5l_and3_1 $PINS X=_0600_ A=\u_spi_core.read_data[14] B=_0561_ 
+ C=net354 VDD=VDD VSS=VSS 
X_1033_ sg13cmos5l_a21oi_1 $PINS VSS=VSS VDD=VDD A1=\u_spi_core.miso_shift[13] 
+ A2=_0558_ Y=_0601_ B1=_0600_ 
X_1034_ sg13cmos5l_nor2_1 $PINS A=\u_spi_core.miso_shift[14] B=net343 Y=_0602_ 
+ VDD=VDD VSS=VSS 
X_1035_ sg13cmos5l_a21oi_1 $PINS VSS=VSS VDD=VDD A1=net343 A2=_0601_ Y=_0229_ 
+ B1=_0602_ 
X_1036_ sg13cmos5l_and3_1 $PINS X=_0603_ A=\u_spi_core.read_data[13] B=_0561_ 
+ C=net354 VDD=VDD VSS=VSS 
X_1037_ sg13cmos5l_a21oi_1 $PINS VSS=VSS VDD=VDD A1=\u_spi_core.miso_shift[12] 
+ A2=_0558_ Y=_0604_ B1=_0603_ 
X_1038_ sg13cmos5l_nor2_1 $PINS A=\u_spi_core.miso_shift[13] B=net343 Y=_0605_ 
+ VDD=VDD VSS=VSS 
X_1039_ sg13cmos5l_a21oi_1 $PINS VSS=VSS VDD=VDD A1=net343 A2=_0604_ Y=_0228_ 
+ B1=_0605_ 
X_1040_ sg13cmos5l_and3_1 $PINS X=_0606_ A=\u_spi_core.read_data[12] B=_0561_ 
+ C=net354 VDD=VDD VSS=VSS 
X_1041_ sg13cmos5l_a21oi_1 $PINS VSS=VSS VDD=VDD A1=\u_spi_core.miso_shift[11] 
+ A2=_0558_ Y=_0607_ B1=_0606_ 
X_1042_ sg13cmos5l_nor2_1 $PINS A=\u_spi_core.miso_shift[12] B=net343 Y=_0608_ 
+ VDD=VDD VSS=VSS 
X_1043_ sg13cmos5l_a21oi_1 $PINS VSS=VSS VDD=VDD A1=net343 A2=_0607_ Y=_0227_ 
+ B1=_0608_ 
X_1044_ sg13cmos5l_and3_1 $PINS X=_0609_ A=\u_spi_core.read_data[11] B=_0561_ 
+ C=net354 VDD=VDD VSS=VSS 
X_1045_ sg13cmos5l_a21oi_1 $PINS VSS=VSS VDD=VDD A1=\u_spi_core.miso_shift[10] 
+ A2=_0558_ Y=_0610_ B1=_0609_ 
X_1046_ sg13cmos5l_nor2_1 $PINS A=\u_spi_core.miso_shift[11] B=net343 Y=_0611_ 
+ VDD=VDD VSS=VSS 
X_1047_ sg13cmos5l_a21oi_1 $PINS VSS=VSS VDD=VDD A1=net342 A2=_0610_ Y=_0226_ 
+ B1=_0611_ 
X_1048_ sg13cmos5l_and3_1 $PINS X=_0612_ A=\u_spi_core.read_data[10] B=net355 
+ C=net353 VDD=VDD VSS=VSS 
X_1049_ sg13cmos5l_a21oi_1 $PINS VSS=VSS VDD=VDD A1=\u_spi_core.miso_shift[9] 
+ A2=net356 Y=_0613_ B1=_0612_ 
X_1050_ sg13cmos5l_nor2_1 $PINS A=\u_spi_core.miso_shift[10] B=net341 Y=_0614_ 
+ VDD=VDD VSS=VSS 
X_1051_ sg13cmos5l_a21oi_1 $PINS VSS=VSS VDD=VDD A1=net341 A2=_0613_ Y=_0225_ 
+ B1=_0614_ 
X_1052_ sg13cmos5l_inv_1 $PINS VDD=VDD Y=_0615_ A=\u_spi_core.miso_shift[0] 
+ VSS=VSS 
X_1053_ sg13cmos5l_inv_1 $PINS VDD=VDD Y=_0616_ A=\u_spi_core.shift_in[15] 
+ VSS=VSS 
X_1054_ sg13cmos5l_mux2_1 $PINS A0=\u_spi_core.read_data[0] 
+ A1=\u_spi_core.eoc_flag S=\bias_gen_reg_din[15] X=_0617_ VDD=VDD VSS=VSS 
X_1055_ sg13cmos5l_nand4_1 $PINS B=_0616_ C=_0563_ A=\bias_gen_reg_din[14] 
+ Y=_0618_ VDD=VDD VSS=VSS D=_0617_ 
X_1056_ sg13cmos5l_o21ai_1 $PINS B1=_0618_ VDD=VDD Y=_0224_ VSS=VSS A1=_0615_ 
+ A2=_0568_ 
X_1058_ sg13cmos5l_nor2b_2 $PINS A=cs_n B_N=rst_n Y=\u_spi_core.spi_rst_n 
+ VDD=VDD VSS=VSS 
X_1060_ sg13cmos5l_and3_1 $PINS X=_0621_ A=\u_spi_core.bit_cnt[1] 
+ B=\u_spi_core.bit_cnt[2] C=\u_spi_core.bit_cnt[3] VDD=VDD VSS=VSS 
X_1061_ sg13cmos5l_nand3_1 $PINS B=\u_spi_core.bit_cnt[0] C=_0621_ 
+ A=\u_spi_core.bit_cnt[4] Y=_0622_ VDD=VDD VSS=VSS 
X_1062_ sg13cmos5l_nand2b_1 $PINS Y=_0272_ B=_0622_ A_N=net368 VDD=VDD VSS=VSS 
X_1063_ sg13cmos5l_nor2b_1 $PINS A=cs_n B_N=\u_spi_core.miso_shift[15] Y=miso 
+ VDD=VDD VSS=VSS 
X_1064_ sg13cmos5l_nor2b_2 $PINS A=\u_spi_core.bit_cnt[5] 
+ B_N=\u_spi_core.bit_cnt[0] Y=_0623_ VDD=VDD VSS=VSS 
X_1065_ sg13cmos5l_nand2b_1 $PINS Y=_0624_ B=_0623_ A_N=cs_n VDD=VDD VSS=VSS 
X_1066_ sg13cmos5l_nand2b_1 $PINS Y=_0625_ B=\bias_gen_reg_din[11] 
+ A_N=\bias_gen_reg_din[12] VDD=VDD VSS=VSS 
X_1067_ sg13cmos5l_nor2_1 $PINS A=\u_spi_core.bit_cnt[4] 
+ B=\bias_gen_reg_din[13] Y=_0626_ VDD=VDD VSS=VSS 
X_1068_ sg13cmos5l_nand3_1 $PINS B=\u_spi_core.bit_cnt[3] C=_0626_ 
+ A=\u_spi_core.bit_cnt[2] Y=_0627_ VDD=VDD VSS=VSS 
X_1069_ sg13cmos5l_or4_1 $PINS A=\u_spi_core.bit_cnt[1] B=_0624_ C=_0625_ 
+ D=_0627_ X=_0628_ VDD=VDD VSS=VSS 
X_1070_ sg13cmos5l_inv_1 $PINS VDD=VDD Y=_0629_ A=_0628_ VSS=VSS 
X_1076_ sg13cmos5l_mux2_1 $PINS A0=\bias_gen_reg_din[9] A1=net401 S=net365 
+ X=_0016_ VDD=VDD VSS=VSS 
X_1077_ sg13cmos5l_mux2_1 $PINS A0=net401 A1=\bias_gen_reg_din[11] S=net364 
+ X=_0017_ VDD=VDD VSS=VSS 
X_1078_ sg13cmos5l_mux2_1 $PINS A0=\bias_gen_reg_din[11] 
+ A1=\bias_gen_reg_din[12] S=net368 X=_0018_ VDD=VDD VSS=VSS 
X_1079_ sg13cmos5l_mux2_1 $PINS A0=\bias_gen_reg_din[12] 
+ A1=\bias_gen_reg_din[13] S=net367 X=_0019_ VDD=VDD VSS=VSS 
X_1081_ sg13cmos5l_mux2_1 $PINS A0=\bias_gen_reg_din[13] 
+ A1=\bias_gen_reg_din[14] S=net367 X=_0020_ VDD=VDD VSS=VSS 
X_1082_ sg13cmos5l_nand2_1 $PINS Y=_0635_ A=\bias_gen_reg_din[15] B=net367 
+ VDD=VDD VSS=VSS 
X_1083_ sg13cmos5l_o21ai_1 $PINS B1=_0635_ VDD=VDD Y=_0021_ VSS=VSS A1=_0560_ 
+ A2=net367 
X_1088_ sg13cmos5l_mux2_1 $PINS A0=mosi A1=\bias_gen_reg_din[1] S=net364 
+ X=_0022_ VDD=VDD VSS=VSS 
X_1092_ sg13cmos5l_mux2_1 $PINS A0=\bias_gen_reg_din[1] A1=net394 S=net364 
+ X=_0023_ VDD=VDD VSS=VSS 
X_1095_ sg13cmos5l_mux2_1 $PINS A0=net394 A1=net386 S=net364 X=_0024_ VDD=VDD 
+ VSS=VSS 
X_1098_ sg13cmos5l_mux2_1 $PINS A0=net386 A1=\bias_gen_reg_din[4] S=net364 
+ X=_0025_ VDD=VDD VSS=VSS 
X_1101_ sg13cmos5l_mux2_1 $PINS A0=\bias_gen_reg_din[4] A1=\bias_gen_reg_din[5] 
+ S=net364 X=_0026_ VDD=VDD VSS=VSS 
X_1104_ sg13cmos5l_mux2_1 $PINS A0=\bias_gen_reg_din[5] A1=\bias_gen_reg_din[6] 
+ S=net364 X=_0027_ VDD=VDD VSS=VSS 
X_1107_ sg13cmos5l_mux2_1 $PINS A0=\bias_gen_reg_din[6] A1=net376 S=net364 
+ X=_0028_ VDD=VDD VSS=VSS 
X_1110_ sg13cmos5l_mux2_1 $PINS A0=\bias_gen_reg_din[7] A1=\bias_gen_reg_din[8] 
+ S=net365 X=_0029_ VDD=VDD VSS=VSS 
X_1111_ sg13cmos5l_mux2_1 $PINS A0=net374 A1=net372 S=net365 X=_0030_ VDD=VDD 
+ VSS=VSS 
X_1113_ sg13cmos5l_nor2_1 $PINS A=\bias_gen_reg_din[1] B=\bias_gen_reg_din[2] 
+ Y=_0656_ VDD=VDD VSS=VSS 
X_1114_ sg13cmos5l_or3_1 $PINS A=\bias_gen_reg_din[5] B=\bias_gen_reg_din[6] 
+ C=\bias_gen_reg_din[7] X=_0657_ VDD=VDD VSS=VSS 
X_1115_ sg13cmos5l_nor3_1 $PINS A=\bias_gen_reg_din[3] B=\bias_gen_reg_din[4] 
+ C=_0657_ Y=_0658_ VDD=VDD VSS=VSS 
X_1116_ sg13cmos5l_nand3_1 $PINS B=\u_spi_core.bit_cnt[2] 
+ C=\u_spi_core.bit_cnt[3] A=\u_spi_core.bit_cnt[1] Y=_0659_ VDD=VDD VSS=VSS 
X_1117_ sg13cmos5l_nor2_1 $PINS A=\u_spi_core.bit_cnt[4] 
+ B=\u_spi_core.bit_cnt[5] Y=_0660_ VDD=VDD VSS=VSS 
X_1118_ sg13cmos5l_and2_1 $PINS A=_0659_ B=_0660_ X=_0661_ VDD=VDD VSS=VSS 
X_1121_ sg13cmos5l_nand3_1 $PINS B=_0658_ C=net351 A=_0656_ Y=_0664_ VDD=VDD 
+ VSS=VSS 
X_1122_ sg13cmos5l_or3_1 $PINS A=\u_spi_core.shift_in[22] 
+ B=\u_spi_core.shift_in[23] C=\u_spi_core.shift_in[24] X=_0665_ VDD=VDD VSS=VSS 
X_1123_ sg13cmos5l_nor3_1 $PINS A=\u_spi_core.shift_in[20] 
+ B=\u_spi_core.shift_in[21] C=_0665_ Y=_0666_ VDD=VDD VSS=VSS 
X_1126_ sg13cmos5l_nor2_1 $PINS A=net362 B=net360 Y=_0669_ VDD=VDD VSS=VSS 
X_1127_ sg13cmos5l_nand2_2 $PINS Y=_0670_ A=_0659_ B=_0660_ VDD=VDD VSS=VSS 
X_1129_ sg13cmos5l_nand3_1 $PINS B=_0669_ C=net344 A=_0666_ Y=_0672_ VDD=VDD 
+ VSS=VSS 
X_1130_ sg13cmos5l_nand2_1 $PINS Y=_0673_ A=_0664_ B=_0672_ VDD=VDD VSS=VSS 
X_1132_ sg13cmos5l_and3_1 $PINS X=_0675_ A=\reg_out1[0] B=_0629_ C=_0673_ 
+ VDD=VDD VSS=VSS 
X_1133_ sg13cmos5l_a21oi_1 $PINS VSS=VSS VDD=VDD A1=\bias_gen_reg_dout[0] 
+ A2=net339 Y=_0676_ B1=_0675_ 
X_1134_ sg13cmos5l_or2_1 $PINS VSS=VSS VDD=VDD X=_0677_ B=_0673_ A=_0628_ 
X_1137_ sg13cmos5l_nor2b_1 $PINS A=net360 B_N=_0666_ Y=_0680_ VDD=VDD VSS=VSS 
X_1138_ sg13cmos5l_inv_1 $PINS VDD=VDD Y=_0681_ A=_0658_ VSS=VSS 
X_1139_ sg13cmos5l_nor3_1 $PINS A=net394 B=_0681_ C=net344 Y=_0682_ VDD=VDD 
+ VSS=VSS 
X_1140_ sg13cmos5l_a21oi_1 $PINS VSS=VSS VDD=VDD A1=net344 A2=_0680_ Y=_0683_ 
+ B1=_0682_ 
X_1142_ sg13cmos5l_nor2b_1 $PINS A=net363 B_N=\u_spi_core.shift_in[19] Y=_0685_ 
+ VDD=VDD VSS=VSS 
X_1143_ sg13cmos5l_nand3_1 $PINS B=_0670_ C=_0685_ A=_0666_ Y=_0686_ VDD=VDD 
+ VSS=VSS 
X_1144_ sg13cmos5l_nor2b_1 $PINS A=\bias_gen_reg_din[1] B_N=net394 Y=_0687_ 
+ VDD=VDD VSS=VSS 
X_1145_ sg13cmos5l_nand3_1 $PINS B=net351 C=_0687_ A=_0658_ Y=_0688_ VDD=VDD 
+ VSS=VSS 
X_1146_ sg13cmos5l_and2_1 $PINS A=_0686_ B=_0688_ X=_0689_ VDD=VDD VSS=VSS 
X_1148_ sg13cmos5l_or2_1 $PINS VSS=VSS VDD=VDD X=_0691_ B=_0689_ A=\reg_out3[0] 
X_1149_ sg13cmos5l_o21ai_1 $PINS B1=_0691_ VDD=VDD Y=_0692_ VSS=VSS 
+ A1=\reg_out2[0] A2=net302 
X_1150_ sg13cmos5l_or2_1 $PINS VSS=VSS VDD=VDD X=_0693_ B=_0692_ A=net303 
X_1151_ sg13cmos5l_nor3_1 $PINS A=\bias_gen_reg_din[5] B=\bias_gen_reg_din[6] 
+ C=\bias_gen_reg_din[7] Y=_0694_ VDD=VDD VSS=VSS 
X_1152_ sg13cmos5l_nand4_1 $PINS B=net387 C=net383 A=net389 Y=_0695_ VDD=VDD 
+ VSS=VSS D=_0694_ 
X_1153_ sg13cmos5l_nand2_1 $PINS Y=_0696_ A=\u_spi_core.shift_in[20] 
+ B=\u_spi_core.shift_in[21] VDD=VDD VSS=VSS 
X_1154_ sg13cmos5l_nor2_1 $PINS A=_0665_ B=_0696_ Y=_0697_ VDD=VDD VSS=VSS 
X_1155_ sg13cmos5l_nand3_1 $PINS B=net349 C=_0697_ A=net358 Y=_0698_ VDD=VDD 
+ VSS=VSS 
X_1156_ sg13cmos5l_o21ai_1 $PINS B1=_0698_ VDD=VDD Y=_0699_ VSS=VSS A1=net349 
+ A2=_0695_ 
X_1158_ sg13cmos5l_mux2_2 $PINS A0=\u_spi_core.shift_in[18] A1=net396 S=_0661_ 
+ X=_0701_ VDD=VDD VSS=VSS 
X_1160_ sg13cmos5l_mux2_1 $PINS A0=\reg_out15[0] A1=\reg_out16[0] S=net335 
+ X=_0703_ VDD=VDD VSS=VSS 
X_1161_ sg13cmos5l_and2_1 $PINS A=net314 B=_0703_ X=_0704_ VDD=VDD VSS=VSS 
X_1162_ sg13cmos5l_nand2b_1 $PINS Y=_0705_ B=net387 A_N=net389 VDD=VDD VSS=VSS 
X_1163_ sg13cmos5l_nand3b_1 $PINS B=net389 C=net396 Y=_0706_ VDD=VDD VSS=VSS 
+ A_N=net387 
X_1164_ sg13cmos5l_o21ai_1 $PINS B1=_0706_ VDD=VDD Y=_0707_ VSS=VSS A1=net396 
+ A2=_0705_ 
X_1165_ sg13cmos5l_nand4_1 $PINS B=_0694_ C=net352 A=net382 Y=_0708_ VDD=VDD 
+ VSS=VSS D=_0707_ 
X_1166_ sg13cmos5l_nor3_1 $PINS A=\u_spi_core.shift_in[22] 
+ B=\u_spi_core.shift_in[23] C=\u_spi_core.shift_in[24] Y=_0709_ VDD=VDD VSS=VSS 
X_1167_ sg13cmos5l_nand2b_1 $PINS Y=_0710_ B=\u_spi_core.shift_in[20] 
+ A_N=net358 VDD=VDD VSS=VSS 
X_1168_ sg13cmos5l_nand3b_1 $PINS B=net358 C=net363 Y=_0711_ VDD=VDD VSS=VSS 
+ A_N=\u_spi_core.shift_in[20] 
X_1169_ sg13cmos5l_o21ai_1 $PINS B1=_0711_ VDD=VDD Y=_0712_ VSS=VSS A1=net363 
+ A2=_0710_ 
X_1170_ sg13cmos5l_nand4_1 $PINS B=_0709_ C=net349 A=\u_spi_core.shift_in[21] 
+ Y=_0713_ VDD=VDD VSS=VSS D=_0712_ 
X_1171_ sg13cmos5l_and2_1 $PINS A=_0708_ B=_0713_ X=_0714_ VDD=VDD VSS=VSS 
X_1173_ sg13cmos5l_nand2b_1 $PINS Y=_0716_ B=net396 A_N=\bias_gen_reg_din[2] 
+ VDD=VDD VSS=VSS 
X_1174_ sg13cmos5l_nand2_1 $PINS Y=_0717_ A=\bias_gen_reg_din[3] B=net383 
+ VDD=VDD VSS=VSS 
X_1175_ sg13cmos5l_nor3_1 $PINS A=_0657_ B=_0716_ C=_0717_ Y=_0718_ VDD=VDD 
+ VSS=VSS 
X_1176_ sg13cmos5l_nand2b_1 $PINS Y=_0719_ B=\u_spi_core.shift_in[18] 
+ A_N=net358 VDD=VDD VSS=VSS 
X_1177_ sg13cmos5l_nor3_1 $PINS A=_0665_ B=_0719_ C=_0696_ Y=_0720_ VDD=VDD 
+ VSS=VSS 
X_1178_ sg13cmos5l_mux2_1 $PINS A0=_0718_ A1=_0720_ S=net349 X=_0721_ VDD=VDD 
+ VSS=VSS 
X_1180_ sg13cmos5l_nand2_1 $PINS Y=_0723_ A=\reg_out14[0] B=net333 VDD=VDD 
+ VSS=VSS 
X_1181_ sg13cmos5l_nand2_1 $PINS Y=_0724_ A=net313 B=_0723_ VDD=VDD VSS=VSS 
X_1182_ sg13cmos5l_nand2_1 $PINS Y=_0725_ A=\reg_out12[0] B=net334 VDD=VDD 
+ VSS=VSS 
X_1183_ sg13cmos5l_nor2b_1 $PINS A=\u_spi_core.shift_in[20] 
+ B_N=\u_spi_core.shift_in[21] Y=_0726_ VDD=VDD VSS=VSS 
X_1184_ sg13cmos5l_nand2_1 $PINS Y=_0727_ A=_0709_ B=_0726_ VDD=VDD VSS=VSS 
X_1185_ sg13cmos5l_nor2b_1 $PINS A=\bias_gen_reg_din[3] B_N=net383 Y=_0728_ 
+ VDD=VDD VSS=VSS 
X_1186_ sg13cmos5l_nand4_1 $PINS B=_0694_ C=_0660_ A=_0659_ Y=_0729_ VDD=VDD 
+ VSS=VSS D=_0728_ 
X_1187_ sg13cmos5l_o21ai_1 $PINS B1=_0729_ VDD=VDD Y=_0730_ VSS=VSS A1=_0661_ 
+ A2=_0727_ 
X_1188_ sg13cmos5l_mux2_1 $PINS A0=net358 A1=net389 S=net352 X=_0731_ VDD=VDD 
+ VSS=VSS 
X_1189_ sg13cmos5l_and2_1 $PINS A=_0730_ B=_0731_ X=_0732_ VDD=VDD VSS=VSS 
X_1190_ sg13cmos5l_or2_1 $PINS VSS=VSS VDD=VDD X=_0733_ 
+ B=\u_spi_core.shift_in[19] A=\u_spi_core.shift_in[18] 
X_1191_ sg13cmos5l_a21oi_1 $PINS VSS=VSS VDD=VDD A1=_0659_ A2=_0660_ Y=_0734_ 
+ B1=_0733_ 
X_1192_ sg13cmos5l_a21oi_1 $PINS VSS=VSS VDD=VDD A1=_0656_ A2=_0661_ Y=_0735_ 
+ B1=_0734_ 
X_1193_ sg13cmos5l_nand2_1 $PINS Y=_0736_ A=\u_spi_core.shift_in[18] B=net358 
+ VDD=VDD VSS=VSS 
X_1194_ sg13cmos5l_nor2b_1 $PINS A=_0736_ B_N=_0726_ Y=_0737_ VDD=VDD VSS=VSS 
X_1195_ sg13cmos5l_nand2_1 $PINS Y=_0738_ A=net396 B=\bias_gen_reg_din[2] 
+ VDD=VDD VSS=VSS 
X_1196_ sg13cmos5l_nand2b_1 $PINS Y=_0739_ B=net383 A_N=\bias_gen_reg_din[3] 
+ VDD=VDD VSS=VSS 
X_1197_ sg13cmos5l_nor2_1 $PINS A=_0738_ B=_0739_ Y=_0740_ VDD=VDD VSS=VSS 
X_1198_ sg13cmos5l_mux2_1 $PINS A0=_0737_ A1=_0740_ S=net352 X=_0741_ VDD=VDD 
+ VSS=VSS 
X_1199_ sg13cmos5l_or2_1 $PINS VSS=VSS VDD=VDD X=_0742_ B=_0717_ A=_0657_ 
X_1200_ sg13cmos5l_or2_1 $PINS VSS=VSS VDD=VDD X=_0743_ B=_0696_ A=_0665_ 
X_1201_ sg13cmos5l_mux2_1 $PINS A0=_0742_ A1=_0743_ S=net349 X=_0744_ VDD=VDD 
+ VSS=VSS 
X_1202_ sg13cmos5l_nor3_1 $PINS A=_0735_ B=_0741_ C=_0744_ Y=_0745_ VDD=VDD 
+ VSS=VSS 
X_1204_ sg13cmos5l_inv_1 $PINS VDD=VDD Y=_0747_ A=\reg_out13[0] VSS=VSS 
X_1205_ sg13cmos5l_a22oi_1 $PINS Y=_0748_ B1=net311 B2=_0747_ A2=net312 
+ A1=_0725_ VDD=VDD VSS=VSS 
X_1206_ sg13cmos5l_o21ai_1 $PINS B1=_0748_ VDD=VDD Y=_0749_ VSS=VSS A1=_0704_ 
+ A2=_0724_ 
X_1210_ sg13cmos5l_inv_1 $PINS VDD=VDD Y=_0753_ A=\reg_out11[0] VSS=VSS 
X_1213_ sg13cmos5l_o21ai_1 $PINS B1=net360 VDD=VDD Y=_0756_ VSS=VSS A1=_0753_ 
+ A2=net362 
X_1214_ sg13cmos5l_o21ai_1 $PINS B1=_0756_ VDD=VDD Y=_0757_ VSS=VSS 
+ A1=\reg_out9[0] A2=_0733_ 
X_1216_ sg13cmos5l_nor2_1 $PINS A=\reg_out9[0] B=net400 Y=_0759_ VDD=VDD 
+ VSS=VSS 
X_1219_ sg13cmos5l_nand3b_1 $PINS B=net388 C=\reg_out11[0] Y=_0762_ VDD=VDD 
+ VSS=VSS A_N=net400 
X_1220_ sg13cmos5l_o21ai_1 $PINS B1=_0762_ VDD=VDD Y=_0763_ VSS=VSS A1=net388 
+ A2=_0759_ 
X_1221_ sg13cmos5l_nor2_1 $PINS A=net348 B=_0763_ Y=_0764_ VDD=VDD VSS=VSS 
X_1222_ sg13cmos5l_a21oi_1 $PINS VSS=VSS VDD=VDD A1=net348 A2=_0757_ Y=_0765_ 
+ B1=_0764_ 
X_1223_ sg13cmos5l_nand2b_1 $PINS Y=_0766_ B=\u_spi_core.shift_in[20] 
+ A_N=\u_spi_core.shift_in[21] VDD=VDD VSS=VSS 
X_1224_ sg13cmos5l_nor2_1 $PINS A=_0665_ B=_0766_ Y=_0767_ VDD=VDD VSS=VSS 
X_1225_ sg13cmos5l_nand2_1 $PINS Y=_0768_ A=net350 B=_0767_ VDD=VDD VSS=VSS 
X_1226_ sg13cmos5l_nor2b_1 $PINS A=net383 B_N=\bias_gen_reg_din[3] Y=_0769_ 
+ VDD=VDD VSS=VSS 
X_1227_ sg13cmos5l_nand3_1 $PINS B=net351 C=_0769_ A=_0694_ Y=_0770_ VDD=VDD 
+ VSS=VSS 
X_1228_ sg13cmos5l_nand2_1 $PINS Y=_0771_ A=_0768_ B=_0770_ VDD=VDD VSS=VSS 
X_1230_ sg13cmos5l_a21oi_1 $PINS VSS=VSS VDD=VDD A1=net332 A2=_0765_ Y=_0773_ 
+ B1=net308 
X_1231_ sg13cmos5l_nand4_1 $PINS B=net394 C=_0658_ A=\bias_gen_reg_din[1] 
+ Y=_0774_ VDD=VDD VSS=VSS D=net351 
X_1232_ sg13cmos5l_nand4_1 $PINS B=net360 C=_0666_ A=net362 Y=_0775_ VDD=VDD 
+ VSS=VSS D=_0670_ 
X_1233_ sg13cmos5l_and2_1 $PINS A=_0774_ B=_0775_ X=_0776_ VDD=VDD VSS=VSS 
X_1236_ sg13cmos5l_nor2_1 $PINS A=\reg_out9[0] B=net327 Y=_0779_ VDD=VDD 
+ VSS=VSS 
X_1237_ sg13cmos5l_mux2_1 $PINS A0=_0716_ A1=_0719_ S=_0670_ X=_0780_ VDD=VDD 
+ VSS=VSS 
X_1239_ sg13cmos5l_a21o_1 $PINS A2=net351 A1=_0656_ B1=_0734_ X=_0782_ VDD=VDD 
+ VSS=VSS 
X_1241_ sg13cmos5l_nor3_1 $PINS A=\reg_out10[0] B=net324 C=net321 Y=_0784_ 
+ VDD=VDD VSS=VSS 
X_1243_ sg13cmos5l_o21ai_1 $PINS B1=net331 VDD=VDD Y=_0786_ VSS=VSS A1=_0779_ 
+ A2=_0784_ 
X_1244_ sg13cmos5l_and3_1 $PINS X=_0787_ A=_0659_ B=_0660_ C=_0687_ VDD=VDD 
+ VSS=VSS 
X_1245_ sg13cmos5l_a21oi_1 $PINS VSS=VSS VDD=VDD A1=net348 A2=_0685_ Y=_0788_ 
+ B1=_0787_ 
X_1247_ sg13cmos5l_nor2_1 $PINS A=\reg_out7[0] B=_0788_ Y=_0790_ VDD=VDD 
+ VSS=VSS 
X_1248_ sg13cmos5l_mux2_1 $PINS A0=_0736_ A1=_0738_ S=net351 X=_0791_ VDD=VDD 
+ VSS=VSS 
X_1250_ sg13cmos5l_a21o_1 $PINS A2=_0685_ A1=net348 B1=_0787_ X=_0793_ VDD=VDD 
+ VSS=VSS 
X_1252_ sg13cmos5l_nor3_1 $PINS A=\reg_out8[0] B=_0791_ C=_0793_ Y=_0795_ 
+ VDD=VDD VSS=VSS 
X_1253_ sg13cmos5l_nand3_1 $PINS B=_0694_ C=_0769_ A=net389 Y=_0796_ VDD=VDD 
+ VSS=VSS 
X_1254_ sg13cmos5l_nand3_1 $PINS B=net350 C=_0767_ A=net358 Y=_0797_ VDD=VDD 
+ VSS=VSS 
X_1255_ sg13cmos5l_o21ai_1 $PINS B1=_0797_ VDD=VDD Y=_0798_ VSS=VSS A1=net350 
+ A2=_0796_ 
X_1257_ sg13cmos5l_o21ai_1 $PINS B1=_0798_ VDD=VDD Y=_0800_ VSS=VSS A1=_0790_ 
+ A2=_0795_ 
X_1259_ sg13cmos5l_nor2_1 $PINS A=\reg_out5[0] B=net328 Y=_0802_ VDD=VDD 
+ VSS=VSS 
X_1262_ sg13cmos5l_nor3_1 $PINS A=\reg_out6[0] B=net326 C=net322 Y=_0805_ 
+ VDD=VDD VSS=VSS 
X_1264_ sg13cmos5l_o21ai_1 $PINS B1=net309 VDD=VDD Y=_0807_ VSS=VSS A1=_0802_ 
+ A2=_0805_ 
X_1265_ sg13cmos5l_nand4_1 $PINS B=_0786_ C=_0800_ A=net307 Y=_0808_ VDD=VDD 
+ VSS=VSS D=_0807_ 
X_1266_ sg13cmos5l_a21o_1 $PINS A2=_0773_ A1=_0749_ B1=_0808_ X=_0809_ VDD=VDD 
+ VSS=VSS 
X_1268_ sg13cmos5l_nand2b_1 $PINS Y=_0811_ B=_0658_ A_N=_0656_ VDD=VDD VSS=VSS 
X_1269_ sg13cmos5l_nand3_1 $PINS B=_0733_ C=net344 A=_0666_ Y=_0812_ VDD=VDD 
+ VSS=VSS 
X_1270_ sg13cmos5l_o21ai_1 $PINS B1=_0812_ VDD=VDD Y=_0813_ VSS=VSS A1=net344 
+ A2=_0811_ 
X_1272_ sg13cmos5l_nand3b_1 $PINS B=_0716_ C=net351 Y=_0815_ VDD=VDD VSS=VSS 
+ A_N=_0687_ 
X_1273_ sg13cmos5l_o21ai_1 $PINS B1=_0815_ VDD=VDD Y=_0816_ VSS=VSS A1=net351 
+ A2=_0736_ 
X_1275_ sg13cmos5l_nand2b_1 $PINS Y=_0818_ B=_0816_ A_N=\reg_out4[0] VDD=VDD 
+ VSS=VSS 
X_1276_ sg13cmos5l_a221oi_1 $PINS VDD=VDD VSS=VSS B2=_0818_ C1=_0675_ B1=_0813_ 
+ A1=\bias_gen_reg_dout[0] Y=_0819_ A2=net339 
X_1277_ sg13cmos5l_a22oi_1 $PINS Y=_0031_ B1=_0809_ B2=_0819_ A2=_0693_ 
+ A1=_0676_ VDD=VDD VSS=VSS 
X_1278_ sg13cmos5l_and3_1 $PINS X=_0820_ A=\reg_out1[10] B=net317 C=net316 
+ VDD=VDD VSS=VSS 
X_1279_ sg13cmos5l_a21oi_1 $PINS VSS=VSS VDD=VDD A1=\bias_gen_reg_dout[10] 
+ A2=net337 Y=_0821_ B1=_0820_ 
X_1280_ sg13cmos5l_or2_1 $PINS VSS=VSS VDD=VDD X=_0822_ B=net315 
+ A=\reg_out3[10] 
X_1281_ sg13cmos5l_o21ai_1 $PINS B1=_0822_ VDD=VDD Y=_0823_ VSS=VSS 
+ A1=\reg_out2[10] A2=_0683_ 
X_1282_ sg13cmos5l_or2_1 $PINS VSS=VSS VDD=VDD X=_0824_ B=_0823_ A=net303 
X_1283_ sg13cmos5l_mux2_1 $PINS A0=\reg_out15[10] A1=\reg_out16[10] S=net336 
+ X=_0825_ VDD=VDD VSS=VSS 
X_1284_ sg13cmos5l_and2_1 $PINS A=_0699_ B=_0825_ X=_0826_ VDD=VDD VSS=VSS 
X_1285_ sg13cmos5l_nand2_1 $PINS Y=_0827_ A=\reg_out14[10] B=net333 VDD=VDD 
+ VSS=VSS 
X_1286_ sg13cmos5l_nand2_1 $PINS Y=_0828_ A=_0714_ B=_0827_ VDD=VDD VSS=VSS 
X_1287_ sg13cmos5l_inv_1 $PINS VDD=VDD Y=_0829_ A=\reg_out13[10] VSS=VSS 
X_1289_ sg13cmos5l_nand2_1 $PINS Y=_0831_ A=\reg_out12[10] B=_0701_ VDD=VDD 
+ VSS=VSS 
X_1291_ sg13cmos5l_a22oi_1 $PINS Y=_0833_ B1=_0831_ B2=_0732_ A2=_0745_ 
+ A1=_0829_ VDD=VDD VSS=VSS 
X_1292_ sg13cmos5l_o21ai_1 $PINS B1=_0833_ VDD=VDD Y=_0834_ VSS=VSS A1=_0826_ 
+ A2=_0828_ 
X_1293_ sg13cmos5l_inv_1 $PINS VDD=VDD Y=_0835_ A=\reg_out11[10] VSS=VSS 
X_1294_ sg13cmos5l_o21ai_1 $PINS B1=net359 VDD=VDD Y=_0836_ VSS=VSS A1=_0835_ 
+ A2=net361 
X_1295_ sg13cmos5l_o21ai_1 $PINS B1=_0836_ VDD=VDD Y=_0837_ VSS=VSS 
+ A1=\reg_out9[10] A2=net357 
X_1298_ sg13cmos5l_nor2_1 $PINS A=\reg_out9[10] B=net398 Y=_0840_ VDD=VDD 
+ VSS=VSS 
X_1299_ sg13cmos5l_nand3b_1 $PINS B=net393 C=\reg_out11[10] Y=_0841_ VDD=VDD 
+ VSS=VSS A_N=net398 
X_1300_ sg13cmos5l_o21ai_1 $PINS B1=_0841_ VDD=VDD Y=_0842_ VSS=VSS A1=net392 
+ A2=_0840_ 
X_1301_ sg13cmos5l_nor2_1 $PINS A=net346 B=_0842_ Y=_0843_ VDD=VDD VSS=VSS 
X_1302_ sg13cmos5l_a21oi_1 $PINS VSS=VSS VDD=VDD A1=net346 A2=_0837_ Y=_0844_ 
+ B1=_0843_ 
X_1303_ sg13cmos5l_a21oi_1 $PINS VSS=VSS VDD=VDD A1=net330 A2=_0844_ Y=_0845_ 
+ B1=net308 
X_1304_ sg13cmos5l_nor2_1 $PINS A=\reg_out9[10] B=net327 Y=_0846_ VDD=VDD 
+ VSS=VSS 
X_1305_ sg13cmos5l_nor3_1 $PINS A=\reg_out10[10] B=net324 C=_0782_ Y=_0847_ 
+ VDD=VDD VSS=VSS 
X_1306_ sg13cmos5l_o21ai_1 $PINS B1=net332 VDD=VDD Y=_0848_ VSS=VSS A1=_0846_ 
+ A2=_0847_ 
X_1307_ sg13cmos5l_nor2_1 $PINS A=\reg_out7[10] B=_0788_ Y=_0849_ VDD=VDD 
+ VSS=VSS 