** sch_path: /foss/designs/ihp_INI_project/INI_Block/INI_Block.sch
.subckt INI_Block NN1_REQ NN2_REQ NN3_REQ NN1_ACK NN2_ACK NN3_ACK BG_100mV BG_BIAS BG_100k BG_PROB NN2_MEM_PROB NN1_MEM_PROB
+ NN3_MEM_PROB V2I_INN V2I_INP SPI_CS_N SPI_MISO SPI_SCK SPI_MOSI SPI_RST_N C2F_COMP C2F_REQ VSS VDD
*.PININFO NN1_REQ:O NN2_REQ:O NN3_REQ:O NN1_ACK:I NN2_ACK:I NN3_ACK:I BG_100mV:B BG_BIAS:I BG_100k:B BG_PROB:B NN2_MEM_PROB:O
*+ NN1_MEM_PROB:O NN3_MEM_PROB:O V2I_INN:I V2I_INP:I SPI_CS_N:I SPI_MISO:O SPI_SCK:I SPI_MOSI:I SPI_RST_N:I C2F_COMP:O C2F_REQ:O VSS:B VDD:B
x1 VDD NNDPI_gain_VNI NNDPI_lk_VNI NN1_MEM_PROB NN1_REQ NNADAP_gain_VPI NNADAPDPI_gain_VNI NN1_ADAP_cap_VTO NN1_ACK
+ NNADAPDPI_lk_VNI NNREF_lk_VNI VSS NN1_REF_cap_VTO NNPULEXT_pwbias_VPI net1 neuron
x2 BG_BIAS BIASGEN_BYP_en_VS[0] BG_100mV BIASGEN_EXT_REF_en_VS[0] VDD ref_VUN[7] ref_VUN[6] ref_VUN[6] ref_VUN[6] ref_VUN[6]
+ ref_VUN[6] ref_VUN[6] ref_VUN[6] ref_VUN[6] ref_VUN[6] ref_VUN[5] ref_VUN[5] ref_VUN[5] ref_VUN[5] ref_VUN[5] ref_VUN[5] ref_VUN[5]
+ ref_VUN[5] ref_VUN[5] ref_VUN[4] ref_VUN[4] ref_VUN[4] ref_VUN[4] ref_VUN[4] ref_VUN[4] ref_VUN[4] ref_VUN[4] ref_VUN[4] ref_VUN[3]
+ ref_VUN[3] ref_VUN[3] ref_VUN[3] ref_VUN[3] ref_VUN[3] ref_VUN[3] ref_VUN[3] ref_VUN[3] ref_VUN[2] ref_VUN[2] ref_VUN[2] ref_VUN[2]
+ ref_VUN[2] ref_VUN[2] ref_VUN[2] ref_VUN[2] ref_VUN[2] ref_VUN[1] ref_VUN[1] ref_VUN[1] ref_VUN[1] ref_VUN[1] ref_VUN[1] ref_VUN[1]
+ ref_VUN[1] ref_VUN[1] ref_VUN[0] ref_VUN[0] ref_VUN[0] ref_VUN[0] ref_VUN[0] ref_VUN[0] ref_VUN[0] ref_VUN[0] ref_VUN[0] BG_100k VSS
+ MasterBias
x5 ref_VUN[7] ref_VUN[6] ref_VUN[5] ref_VUN[4] ref_VUN[3] ref_VUN[2] ref_VUN[1] ref_VUN[0] VSS BIASGEN_en_VS[0] CoreDiodeT
x3 VDD V2I_imax_VPI V2I_INN V2I_INP net1 VSS V2I
x13 VDD NNDPI_gain_VNI NNDPI_lk_VNI NN2_MEM_PROB NN2_REQ NNADAP_gain_VPI NNADAPDPI_gain_VNI NN2_ADAP_cap_VTO NN2_ACK
+ NNADAPDPI_lk_VNI NNREF_lk_VNI VSS NN_2REF_cap_VTO NNPULEXT_pwbias_VPI net2 neuron
x14 VDD V2I_imax_VPI V2I_INN V2I_INP net2 VSS V2I
x15 VDD NNDPI_gain_VNI NNDPI_lk_VNI NN3_MEM_PROB NN3_REQ NNADAP_gain_VPI NNADAPDPI_gain_VNI NN3_ADAP_cap_VTO NN3_ACK
+ NNADAPDPI_lk_VNI NNREF_lk_VNI VSS NN3_REF_cap_VTO NNPULEXT_pwbias_VPI net3 neuron
x16 VDD V2I_imax_VPI V2I_INN V2I_INP net3 VSS V2I
x1 SPI_CS_N SPI_MISO mosi SPI_RST_N SPI_SCK VDD bias_gen_spi_top
x4 en_VS_8[10] en_VS_8[9] en_VS_8[8] en_VS_8[7] en_VS_8[6] en_VS_8[5] en_VS_8[4] en_VS_8[3] en_VS_8[2] en_VS_8[1] en_VS_8[0]
+ ref_VUN[7] ref_VUN[6] ref_VUN[5] ref_VUN[4] ref_VUN[3] ref_VUN[2] ref_VUN[1] ref_VUN[0] en_VS_9[10] en_VS_9[9] en_VS_9[8] en_VS_9[7]
+ en_VS_9[6] en_VS_9[5] en_VS_9[4] en_VS_9[3] en_VS_9[2] en_VS_9[1] en_VS_9[0] en_VS_0[10] en_VS_0[9] en_VS_0[8] en_VS_0[7] en_VS_0[6]
+ en_VS_0[5] en_VS_0[4] en_VS_0[3] en_VS_0[2] en_VS_0[1] en_VS_0[0] en_VS_1[10] en_VS_1[9] en_VS_1[8] en_VS_1[7] en_VS_1[6] en_VS_1[5]
+ en_VS_1[4] en_VS_1[3] en_VS_1[2] en_VS_1[1] en_VS_1[0] BIASGEN_en_VS[0] en_VS_10[10] en_VS_10[9] en_VS_10[8] en_VS_10[7] en_VS_10[6]
+ en_VS_10[5] en_VS_10[4] en_VS_10[3] en_VS_10[2] en_VS_10[1] en_VS_10[0] en_VS_3[10] en_VS_3[9] en_VS_3[8] en_VS_3[7] en_VS_3[6] en_VS_3[5]
+ en_VS_3[4] en_VS_3[3] en_VS_3[2] en_VS_3[1] en_VS_3[0] en_VS_7[10] en_VS_7[9] en_VS_7[8] en_VS_7[7] en_VS_7[6] en_VS_7[5] en_VS_7[4]
+ en_VS_7[3] en_VS_7[2] en_VS_7[1] en_VS_7[0] en_VS_4[10] en_VS_4[9] en_VS_4[8] en_VS_4[7] en_VS_4[6] en_VS_4[5] en_VS_4[4] en_VS_4[3]
+ en_VS_4[2] en_VS_4[1] en_VS_4[0] en_VS_6[10] en_VS_6[9] en_VS_6[8] en_VS_6[7] en_VS_6[6] en_VS_6[5] en_VS_6[4] en_VS_6[3] en_VS_6[2]
+ en_VS_6[1] en_VS_6[0] en_VS_2[10] en_VS_2[9] en_VS_2[8] en_VS_2[7] en_VS_2[6] en_VS_2[5] en_VS_2[4] en_VS_2[3] en_VS_2[2] en_VS_2[1]
+ en_VS_2[0] en_VS_5[10] en_VS_5[9] en_VS_5[8] en_VS_5[7] en_VS_5[6] en_VS_5[5] en_VS_5[4] en_VS_5[3] en_VS_5[2] en_VS_5[1] en_VS_5[0] C2F_Iin
+ NNPULEXT_pwbias_VPI NNDPI_gain_VNI NNREF_lk_VNI NNADAPDPI_lk_VNI NNADAPDPI_gain_VNI V2I_imax_VPI NNADAP_gain_VPI NNDPI_lk_VNI C2F_Vb BG_PROB VDD VSS
+ BiasBlock
* noconn #net5
* noconn BIASGEN_en_VS[10:1]
* noconn BIASGEN_BYP_en_VS[10:1]
* noconn BIASGEN_EXT_REF_en_VS[10:1]
* noconn C2F_en_VSBI[10:1]
x6 VDD C2F_en_VSBI[0] C2F_Vb C2F_REQ C2F_Iin C2F_COMP VSS C-to-F
.ends

* expanding   symbol:  neuron.sym # of pins=15
** sym_path: /foss/designs/ihp_INI_project/INI_Block/neuron.sym
** sch_path: /foss/designs/ihp_INI_project/INI_Block/neuron.sch
.subckt neuron vdda DPI_gain_VNI DPI_lk_VNI SOM_mem_VTO req_VAO ADAP_gain_VPI ADAPDPI_gain_VNI ADAPDPI_cap_VTO ack_VAI
+ ADAPDPI_lk_VNI REF_lk_VNI vssa REF_cap_VTO PULEXT_pwbias_VPI DPI_in_UNI
*.PININFO REF_lk_VNI:I vssa:B vdda:B req_VAO:O ack_VAI:I DPI_lk_VNI:I ADAP_gain_VPI:I ADAPDPI_gain_VNI:I ADAPDPI_lk_VNI:I
*+ ADAPDPI_cap_VTO:O SOM_mem_VTO:O REF_cap_VTO:O PULEXT_pwbias_VPI:I DPI_gain_VNI:I DPI_in_UNI:B
Xfb vdda FB_cmpstate_VABO SOM_mem_VTO vssa FB_system
Xadap vdda PULEXT_ackext_VABO ADAPDPI_cap_VTO ADAP_gain_VPI DPI_in_UNI ADAPDPI_gain_VNI ADAPDPI_lk_VNI vssa ADAP_system
Xref net2 SOM_mem_VTO net1 REF_cap_VTO vssa REF_lk_VNI vdda REF_system
xext vdda vssa net3 ack_VAI PULEXT_pwbias_VPI PULEXT_cap_VP pulse_extender_V2
Xinv2 vdda net1 req_VAO vssa inv
Xinv3 vdda net2 ack_VAI vssa inv
Xinv4 vdda PULEXT_ackext_VABO net3 vssa inv
CC6 SOM_mem_VTO vssa SOM_mem_VTO vssa sg13_hv_svaricap w=9.74u l=0.8u Nx=3
CC7 SOM_mem_VTO vssa SOM_mem_VTO vssa sg13_hv_svaricap w=9.74u l=0.8u Nx=3
CC4 PULEXT_cap_VP vssa PULEXT_cap_VP vssa sg13_hv_svaricap w=3.74u l=0.3u Nx=1
x1 vdda req_VAO FB_cmpstate_VABO vssa inv_hc
Xdpi1 DPI_in_UNI vdda SOM_mem_VTO DPI_gain_VNI vssa DPI_lk_VNI DPI_gain
CC1 SOM_mem_VTO vssa SOM_mem_VTO vssa sg13_hv_svaricap w=9.74u l=0.8u Nx=3
CC5 SOM_mem_VTO vssa SOM_mem_VTO vssa sg13_hv_svaricap w=9.74u l=0.8u Nx=3
CC8 SOM_mem_VTO vssa SOM_mem_VTO vssa sg13_hv_svaricap w=9.74u l=0.8u Nx=3
CC9 ADAPDPI_cap_VTO vssa ADAPDPI_cap_VTO vssa sg13_hv_svaricap w=9.74u l=0.8u Nx=3
CC10 ADAPDPI_cap_VTO vssa ADAPDPI_cap_VTO vssa sg13_hv_svaricap w=9.74u l=0.8u Nx=3
CC11 ADAPDPI_cap_VTO vssa ADAPDPI_cap_VTO vssa sg13_hv_svaricap w=9.74u l=0.8u Nx=3
CC2 REF_cap_VTO vssa REF_cap_VTO vssa sg13_hv_svaricap w=9.74u l=0.8u Nx=3
CC3 REF_cap_VTO vssa REF_cap_VTO vssa sg13_hv_svaricap w=9.74u l=0.8u Nx=3
CC12 REF_cap_VTO vssa REF_cap_VTO vssa sg13_hv_svaricap w=9.74u l=0.8u Nx=3
.ends


* expanding   symbol:  MasterBias.sym # of pins=15
** sym_path: /foss/designs/ihp_INI_project/INI_Block/MasterBias.sym
** sch_path: /foss/designs/ihp_INI_project/INI_Block/MasterBias.sch
.subckt MasterBias VBP_TIA BYP_EN VREF_100mV EXT_REF_EN VDDA IREF_1uA[0] IREF_100nA[8] IREF_100nA[7] IREF_100nA[6] IREF_100nA[5]
+ IREF_100nA[4] IREF_100nA[3] IREF_100nA[2] IREF_100nA[1] IREF_100nA[0] IREF_10nA[8] IREF_10nA[7] IREF_10nA[6] IREF_10nA[5] IREF_10nA[4]
+ IREF_10nA[3] IREF_10nA[2] IREF_10nA[1] IREF_10nA[0] IREF_1nA[8] IREF_1nA[7] IREF_1nA[6] IREF_1nA[5] IREF_1nA[4] IREF_1nA[3] IREF_1nA[2]
+ IREF_1nA[1] IREF_1nA[0] IREF_100pA[8] IREF_100pA[7] IREF_100pA[6] IREF_100pA[5] IREF_100pA[4] IREF_100pA[3] IREF_100pA[2] IREF_100pA[1]
+ IREF_100pA[0] IREF_10pA[8] IREF_10pA[7] IREF_10pA[6] IREF_10pA[5] IREF_10pA[4] IREF_10pA[3] IREF_10pA[2] IREF_10pA[1] IREF_10pA[0] IREF_1pA[8]
+ IREF_1pA[7] IREF_1pA[6] IREF_1pA[5] IREF_1pA[4] IREF_1pA[3] IREF_1pA[2] IREF_1pA[1] IREF_1pA[0] IREF_100fA[8] IREF_100fA[7] IREF_100fA[6]
+ IREF_100fA[5] IREF_100fA[4] IREF_100fA[3] IREF_100fA[2] IREF_100fA[1] IREF_100fA[0] VREG_pad VSSA
*.PININFO IREF_100nA[8:0]:B IREF_10nA[8:0]:B IREF_1nA[8:0]:B IREF_100pA[8:0]:B IREF_10pA[8:0]:B IREF_1pA[8:0]:B IREF_100fA[8:0]:B
*+ VSSA:B IREF_1uA[0]:B VREF_100mV:I VBP_TIA:I VDDA:B BYP_EN:I EXT_REF_EN:I VREG_pad:B
MMnbias VREG_pad EXT_REF_EN net8 VSSA sg13_hv_nmos w=25u l=500n ng=20
x_ota VDDA VBP_TIA net8 VREF_100mV VBIAS VSSA OTA_b
*  C1 -  cap_mfringe  IS MISSING !!!!
R1 VSSA net10 100k
*  C2 -  cap_mfringe  IS MISSING !!!!
MMnbias1 net10 EXT_REF_ENB net8 VSSA sg13_hv_nmos w=25u l=500n ng=20
MMnbias2 net8 VBIAS net9 VSSA sg13_hv_nmos w=25u l=500n ng=20
MMnbias3 net8 BYP_EN net9 VSSA sg13_hv_nmos w=25u l=500n ng=20
x1 VDDA net9 IREF_100nA[8] net2 VSSA DecadeDivider_2
x2 VDDA net3 IREF_1nA[8] net4 VSSA DecadeDivider_2
x3 VDDA net2 IREF_10nA[8] net3 VSSA DecadeDivider_2
x4 VDDA net4 IREF_100pA[8] net5 VSSA DecadeDivider_2
x5 VDDA net5 IREF_10pA[8] net6 VSSA DecadeDivider_2
x6 VDDA net6 IREF_1pA[8] net7 VSSA DecadeDivider_2
x7 VDDA net7 IREF_100fA[8] net1 VSSA DecadeDivider_2
x8 VDDA net9 IREF_1uA[0] VSSA DecadeDividerAux
xinv VDDA EXT_REF_ENB EXT_REF_EN VSSA inv_BG
.ends


* expanding   symbol:  CoreDiodeT.sym # of pins=3
** sym_path: /foss/designs/ihp_INI_project/INI_Block/CoreDiodeT.sym
** sch_path: /foss/designs/ihp_INI_project/INI_Block/CoreDiodeT.sch
.subckt CoreDiodeT ref_VUN[7] ref_VUN[6] ref_VUN[5] ref_VUN[4] ref_VUN[3] ref_VUN[2] ref_VUN[1] ref_VUN[0] vssa en_VS
*.PININFO ref_VUN[7:0]:B en_VS:I vssa:B
x2[8] ref_VUN[7] vssa en_VS ref_VUN[7] ISINK
x2[7] ref_VUN[7] vssa en_VS ref_VUN[7] ISINK
x2[6] ref_VUN[7] vssa en_VS ref_VUN[7] ISINK
x2[5] ref_VUN[7] vssa en_VS ref_VUN[7] ISINK
x2[4] ref_VUN[7] vssa en_VS ref_VUN[7] ISINK
x2[3] ref_VUN[7] vssa en_VS ref_VUN[7] ISINK
x2[2] ref_VUN[7] vssa en_VS ref_VUN[7] ISINK
x2[1] ref_VUN[7] vssa en_VS ref_VUN[7] ISINK
x9[8] ref_VUN[6] vssa en_VS ref_VUN[6] ISINK
x9[7] ref_VUN[6] vssa en_VS ref_VUN[6] ISINK
x9[6] ref_VUN[6] vssa en_VS ref_VUN[6] ISINK
x9[5] ref_VUN[6] vssa en_VS ref_VUN[6] ISINK
x9[4] ref_VUN[6] vssa en_VS ref_VUN[6] ISINK
x9[3] ref_VUN[6] vssa en_VS ref_VUN[6] ISINK
x9[2] ref_VUN[6] vssa en_VS ref_VUN[6] ISINK
x9[1] ref_VUN[6] vssa en_VS ref_VUN[6] ISINK
x10[8] ref_VUN[5] vssa en_VS ref_VUN[5] ISINK
x10[7] ref_VUN[5] vssa en_VS ref_VUN[5] ISINK
x10[6] ref_VUN[5] vssa en_VS ref_VUN[5] ISINK
x10[5] ref_VUN[5] vssa en_VS ref_VUN[5] ISINK
x10[4] ref_VUN[5] vssa en_VS ref_VUN[5] ISINK
x10[3] ref_VUN[5] vssa en_VS ref_VUN[5] ISINK
x10[2] ref_VUN[5] vssa en_VS ref_VUN[5] ISINK
x10[1] ref_VUN[5] vssa en_VS ref_VUN[5] ISINK
x11[8] ref_VUN[4] vssa en_VS ref_VUN[4] ISINK
x11[7] ref_VUN[4] vssa en_VS ref_VUN[4] ISINK
x11[6] ref_VUN[4] vssa en_VS ref_VUN[4] ISINK
x11[5] ref_VUN[4] vssa en_VS ref_VUN[4] ISINK
x11[4] ref_VUN[4] vssa en_VS ref_VUN[4] ISINK
x11[3] ref_VUN[4] vssa en_VS ref_VUN[4] ISINK
x11[2] ref_VUN[4] vssa en_VS ref_VUN[4] ISINK
x11[1] ref_VUN[4] vssa en_VS ref_VUN[4] ISINK
x12[8] ref_VUN[3] vssa en_VS ref_VUN[3] ISINK
x12[7] ref_VUN[3] vssa en_VS ref_VUN[3] ISINK
x12[6] ref_VUN[3] vssa en_VS ref_VUN[3] ISINK
x12[5] ref_VUN[3] vssa en_VS ref_VUN[3] ISINK
x12[4] ref_VUN[3] vssa en_VS ref_VUN[3] ISINK
x12[3] ref_VUN[3] vssa en_VS ref_VUN[3] ISINK
x12[2] ref_VUN[3] vssa en_VS ref_VUN[3] ISINK
x12[1] ref_VUN[3] vssa en_VS ref_VUN[3] ISINK
x13[8] ref_VUN[2] vssa en_VS ref_VUN[2] ISINK
x13[7] ref_VUN[2] vssa en_VS ref_VUN[2] ISINK
x13[6] ref_VUN[2] vssa en_VS ref_VUN[2] ISINK
x13[5] ref_VUN[2] vssa en_VS ref_VUN[2] ISINK
x13[4] ref_VUN[2] vssa en_VS ref_VUN[2] ISINK
x13[3] ref_VUN[2] vssa en_VS ref_VUN[2] ISINK
x13[2] ref_VUN[2] vssa en_VS ref_VUN[2] ISINK
x13[1] ref_VUN[2] vssa en_VS ref_VUN[2] ISINK
x14[8] ref_VUN[1] vssa en_VS ref_VUN[1] ISINK
x14[7] ref_VUN[1] vssa en_VS ref_VUN[1] ISINK
x14[6] ref_VUN[1] vssa en_VS ref_VUN[1] ISINK
x14[5] ref_VUN[1] vssa en_VS ref_VUN[1] ISINK
x14[4] ref_VUN[1] vssa en_VS ref_VUN[1] ISINK
x14[3] ref_VUN[1] vssa en_VS ref_VUN[1] ISINK
x14[2] ref_VUN[1] vssa en_VS ref_VUN[1] ISINK
x14[1] ref_VUN[1] vssa en_VS ref_VUN[1] ISINK
x8[8] ref_VUN[0] vssa en_VS ref_VUN[0] ISINK
x8[7] ref_VUN[0] vssa en_VS ref_VUN[0] ISINK
x8[6] ref_VUN[0] vssa en_VS ref_VUN[0] ISINK
x8[5] ref_VUN[0] vssa en_VS ref_VUN[0] ISINK
x8[4] ref_VUN[0] vssa en_VS ref_VUN[0] ISINK
x8[3] ref_VUN[0] vssa en_VS ref_VUN[0] ISINK
x8[2] ref_VUN[0] vssa en_VS ref_VUN[0] ISINK
x8[1] ref_VUN[0] vssa en_VS ref_VUN[0] ISINK
*  C1 -  cap_mfringe  IS MISSING !!!!
*  C2 -  cap_mfringe  IS MISSING !!!!
*  C3 -  cap_mfringe  IS MISSING !!!!
*  C4 -  cap_mfringe  IS MISSING !!!!
*  C5 -  cap_mfringe  IS MISSING !!!!
*  C6 -  cap_mfringe  IS MISSING !!!!
*  C7 -  cap_mfringe  IS MISSING !!!!
*  C8 -  cap_mfringe  IS MISSING !!!!
.ends


* expanding   symbol:  V2I.sym # of pins=6
** sym_path: /foss/designs/ihp_INI_project/INI_Block/V2I.sym
** sch_path: /foss/designs/ihp_INI_project/INI_Block/V2I.sch
.subckt V2I vdda imax_VPI inputcm_VNI inputcm_VPI out_UPO vssa
*.PININFO inputcm_VNI:I inputcm_VPI:I out_UPO:O imax_VPI:I vdda:B vssa:B
MMIRA Vm Vm vssa vssa sg13_hv_nmos w=4u l=1u ng=2 m=4
MMBIAS Vb imax_VPI vdda vdda sg13_hv_pmos w=4u l=1u ng=2 m=4
MMIRB out_UPO Vm vssa vssa sg13_hv_nmos w=4u l=1u ng=2 m=4
MMdiffINN out_UPO inputcm_VNI Vb vdda sg13_hv_pmos w=4u l=1u ng=2 m=4
MMIDC out_UPO imax_VPI vdda vdda sg13_hv_pmos w=3u l=1u ng=2 m=4
MMdiffINP Vm inputcm_VPI Vb vdda sg13_hv_pmos w=4u l=1u ng=2 m=4
MMDdiffINP Vb Vb Vb vdda sg13_hv_pmos w=4u l=1u ng=2 m=2
MMDdiffINN Vb Vb Vb vdda sg13_hv_pmos w=4u l=1u ng=2 m=2
.ends


* expanding   symbol:  bias_gen_spi_top.sym # of pins=23
** sym_path: /foss/designs/ihp_INI_project/INI_Block/bias_gen_spi_top.sym
.include ./bias_gen_spi_top_lvs.spice

* expanding   symbol:  BiasBlock.sym # of pins=26
** sym_path: /foss/designs/ihp_INI_project/INI_Block/BiasBlock.sym
** sch_path: /foss/designs/ihp_INI_project/INI_Block/BiasBlock.sch
.subckt BiasBlock en_VS_8[10] en_VS_8[9] en_VS_8[8] en_VS_8[7] en_VS_8[6] en_VS_8[5] en_VS_8[4] en_VS_8[3] en_VS_8[2] en_VS_8[1]
+ en_VS_8[0] ref_VUN[7] ref_VUN[6] ref_VUN[5] ref_VUN[4] ref_VUN[3] ref_VUN[2] ref_VUN[1] ref_VUN[0] en_VS_9[10] en_VS_9[9] en_VS_9[8]
+ en_VS_9[7] en_VS_9[6] en_VS_9[5] en_VS_9[4] en_VS_9[3] en_VS_9[2] en_VS_9[1] en_VS_9[0] en_VS_0[10] en_VS_0[9] en_VS_0[8] en_VS_0[7]
+ en_VS_0[6] en_VS_0[5] en_VS_0[4] en_VS_0[3] en_VS_0[2] en_VS_0[1] en_VS_0[0] en_VS_1[10] en_VS_1[9] en_VS_1[8] en_VS_1[7] en_VS_1[6]
+ en_VS_1[5] en_VS_1[4] en_VS_1[3] en_VS_1[2] en_VS_1[1] en_VS_1[0] BIASGEN_en_VS en_VS_10[10] en_VS_10[9] en_VS_10[8] en_VS_10[7] en_VS_10[6]
+ en_VS_10[5] en_VS_10[4] en_VS_10[3] en_VS_10[2] en_VS_10[1] en_VS_10[0] en_VS_3[10] en_VS_3[9] en_VS_3[8] en_VS_3[7] en_VS_3[6] en_VS_3[5]
+ en_VS_3[4] en_VS_3[3] en_VS_3[2] en_VS_3[1] en_VS_3[0] en_VS_7[10] en_VS_7[9] en_VS_7[8] en_VS_7[7] en_VS_7[6] en_VS_7[5] en_VS_7[4]
+ en_VS_7[3] en_VS_7[2] en_VS_7[1] en_VS_7[0] en_VS_4[10] en_VS_4[9] en_VS_4[8] en_VS_4[7] en_VS_4[6] en_VS_4[5] en_VS_4[4] en_VS_4[3]
+ en_VS_4[2] en_VS_4[1] en_VS_4[0] en_VS_6[10] en_VS_6[9] en_VS_6[8] en_VS_6[7] en_VS_6[6] en_VS_6[5] en_VS_6[4] en_VS_6[3] en_VS_6[2]
+ en_VS_6[1] en_VS_6[0] en_VS_2[10] en_VS_2[9] en_VS_2[8] en_VS_2[7] en_VS_2[6] en_VS_2[5] en_VS_2[4] en_VS_2[3] en_VS_2[2] en_VS_2[1]
+ en_VS_2[0] en_VS_5[10] en_VS_5[9] en_VS_5[8] en_VS_5[7] en_VS_5[6] en_VS_5[5] en_VS_5[4] en_VS_5[3] en_VS_5[2] en_VS_5[1] en_VS_5[0] C2F_Iin
+ NNPULEXT_pwbias_VPI NNDPI_gain_VNI NNREF_lk_VNI NNADAPDPI_lk_VNI NNADAPDPI_gain_VNI V2I_imax_VPI NNADAP_gain_VPI NNDPI_lk_VNI C2F_Vb BG_PROB VDD VSS
*.PININFO en_VS_1[10:0]:I NNDPI_gain_VNI:O en_VS_2[10:0]:I NNDPI_lk_VNI:O en_VS_3[10:0]:I en_VS_4[10:0]:I NNPULEXT_pwbias_VPI:O
*+ NNADAP_gain_VPI:O en_VS_5[10:0]:I en_VS_6[10:0]:I en_VS_7[10:0]:I en_VS_0[10:0]:I BIASGEN_en_VS:I VSS:B VDD:B ref_VUN[7:0]:I V2I_imax_VPI:O
*+ NNADAPDPI_gain_VNI:O NNADAPDPI_lk_VNI:O NNREF_lk_VNI:O en_VS_8[10:0]:I en_VS_9[10:0]:I en_VS_10[10:0]:I BG_PROB:O C2F_Iin:O C2F_Vb:O
x6 en_VS_1[10] en_VS_1[9] en_VS_1[8] en_VS_1[7] en_VS_1[6] en_VS_1[5] en_VS_1[4] en_VS_1[3] en_VS_1[2] en_VS_1[1] en_VS_1[0] VSS
+ VDD net1 NNDPI_gain_VNI ref_VUN[7] ref_VUN[6] ref_VUN[5] ref_VUN[4] ref_VUN[3] ref_VUN[2] ref_VUN[1] ref_VUN[0] BIASGEN_en_VS
+ CoreFineDAC_N
x4 en_VS_2[10] en_VS_2[9] en_VS_2[8] en_VS_2[7] en_VS_2[6] en_VS_2[5] en_VS_2[4] en_VS_2[3] en_VS_2[2] en_VS_2[1] en_VS_2[0] VSS
+ VDD net2 NNDPI_lk_VNI ref_VUN[7] ref_VUN[6] ref_VUN[5] ref_VUN[4] ref_VUN[3] ref_VUN[2] ref_VUN[1] ref_VUN[0] BIASGEN_en_VS
+ CoreFineDAC_N
x7 en_VS_3[10] en_VS_3[9] en_VS_3[8] en_VS_3[7] en_VS_3[6] en_VS_3[5] en_VS_3[4] en_VS_3[3] en_VS_3[2] en_VS_3[1] en_VS_3[0] VSS
+ VDD net3 NNREF_lk_VNI ref_VUN[7] ref_VUN[6] ref_VUN[5] ref_VUN[4] ref_VUN[3] ref_VUN[2] ref_VUN[1] ref_VUN[0] BIASGEN_en_VS
+ CoreFineDAC_N
x8 en_VS_4[10] en_VS_4[9] en_VS_4[8] en_VS_4[7] en_VS_4[6] en_VS_4[5] en_VS_4[4] en_VS_4[3] en_VS_4[2] en_VS_4[1] en_VS_4[0] VSS
+ VDD NNADAP_gain_VPI net4 ref_VUN[7] ref_VUN[6] ref_VUN[5] ref_VUN[4] ref_VUN[3] ref_VUN[2] ref_VUN[1] ref_VUN[0] BIASGEN_en_VS
+ CoreFineDAC_N
x9 en_VS_5[10] en_VS_5[9] en_VS_5[8] en_VS_5[7] en_VS_5[6] en_VS_5[5] en_VS_5[4] en_VS_5[3] en_VS_5[2] en_VS_5[1] en_VS_5[0] VSS
+ VDD net5 NNADAPDPI_gain_VNI ref_VUN[7] ref_VUN[6] ref_VUN[5] ref_VUN[4] ref_VUN[3] ref_VUN[2] ref_VUN[1] ref_VUN[0] BIASGEN_en_VS
+ CoreFineDAC_N
x10 en_VS_6[10] en_VS_6[9] en_VS_6[8] en_VS_6[7] en_VS_6[6] en_VS_6[5] en_VS_6[4] en_VS_6[3] en_VS_6[2] en_VS_6[1] en_VS_6[0] VSS
+ VDD net6 NNADAPDPI_lk_VNI ref_VUN[7] ref_VUN[6] ref_VUN[5] ref_VUN[4] ref_VUN[3] ref_VUN[2] ref_VUN[1] ref_VUN[0] BIASGEN_en_VS
+ CoreFineDAC_N
x11 en_VS_7[10] en_VS_7[9] en_VS_7[8] en_VS_7[7] en_VS_7[6] en_VS_7[5] en_VS_7[4] en_VS_7[3] en_VS_7[2] en_VS_7[1] en_VS_7[0] VSS
+ VDD NNPULEXT_pwbias_VPI net7 ref_VUN[7] ref_VUN[6] ref_VUN[5] ref_VUN[4] ref_VUN[3] ref_VUN[2] ref_VUN[1] ref_VUN[0] BIASGEN_en_VS
+ CoreFineDAC_N
x12 en_VS_0[10] en_VS_0[9] en_VS_0[8] en_VS_0[7] en_VS_0[6] en_VS_0[5] en_VS_0[4] en_VS_0[3] en_VS_0[2] en_VS_0[1] en_VS_0[0] VSS
+ VDD V2I_imax_VPI net8 ref_VUN[7] ref_VUN[6] ref_VUN[5] ref_VUN[4] ref_VUN[3] ref_VUN[2] ref_VUN[1] ref_VUN[0] BIASGEN_en_VS
+ CoreFineDAC_N
x17 en_VS_8[10] en_VS_8[9] en_VS_8[8] en_VS_8[7] en_VS_8[6] en_VS_8[5] en_VS_8[4] en_VS_8[3] en_VS_8[2] en_VS_8[1] en_VS_8[0] VSS
+ VDD C2F_Vb net9 ref_VUN[7] ref_VUN[6] ref_VUN[5] ref_VUN[4] ref_VUN[3] ref_VUN[2] ref_VUN[1] ref_VUN[0] BIASGEN_en_VS CoreFineDAC_N
* noconn #net8
* noconn #net1
* noconn #net2
* noconn #net3
* noconn #net4
* noconn #net5
* noconn #net6
* noconn #net7
* noconn #net9
* noconn #net10
* noconn #net11
x1 en_VS_9[10] en_VS_9[9] en_VS_9[8] en_VS_9[7] en_VS_9[6] en_VS_9[5] en_VS_9[4] en_VS_9[3] en_VS_9[2] en_VS_9[1] en_VS_9[0] VSS
+ VDD net10 C2F_Iin ref_VUN[7] ref_VUN[6] ref_VUN[5] ref_VUN[4] ref_VUN[3] ref_VUN[2] ref_VUN[1] ref_VUN[0] BIASGEN_en_VS
+ CoreFineDAC_CurrentOutput_N
x2 en_VS_10[10] en_VS_10[9] en_VS_10[8] en_VS_10[7] en_VS_10[6] en_VS_10[5] en_VS_10[4] en_VS_10[3] en_VS_10[2] en_VS_10[1]
+ en_VS_10[0] VSS VDD net11 BG_PROB ref_VUN[7] ref_VUN[6] ref_VUN[5] ref_VUN[4] ref_VUN[3] ref_VUN[2] ref_VUN[1] ref_VUN[0] BIASGEN_en_VS
+ CoreFineDAC_CurrentOutput_N
.ends


* expanding   symbol:  C-to-F.sym # of pins=7
** sym_path: /foss/designs/ihp_INI_project/INI_Block/C-to-F.sym
** sch_path: /foss/designs/ihp_INI_project/INI_Block/C-to-F.sch
.subckt C-to-F VDD EN VB Vspike IIN vx VSS
*.PININFO vx:O VDD:B Vspike:O IIN:I EN:I VB:I VSS:B
MM19 net2 net1 VDD VDD sg13_hv_pmos w=0.3u l=8u ng=1 m=2
MM4 net9 net1 VDD VDD sg13_hv_pmos w=0.3u l=8u ng=1 m=2
MM32 net1 net1 VDD VDD sg13_hv_pmos w=0.3u l=8u ng=1 m=2
MM16 net3 VB VDD VDD sg13_hv_pmos w=1u l=0.5u ng=1 m=2
MM8 vx net3 VSS VSS sg13_hv_nmos w=0.3u l=8u ng=1 m=2
MM1 net3 net2 VSS VSS sg13_hv_nmos w=0.3u l=8u ng=1 m=2
MM6 net2 net2 VSS VSS sg13_hv_nmos w=0.3u l=8u ng=1 m=20
C5 vm VSS 100f
MM12 net4 vm net8 VDD sg13_hv_pmos w=0.5u l=8u ng=1 m=2
MM17 net7 net5 VSS VSS sg13_hv_nmos w=0.3u l=8u ng=1 m=2
MM20 net6 net4 VSS VSS sg13_hv_nmos w=0.3u l=0.5u ng=1 m=2
MM34 net5 net6 VSS VSS sg13_hv_nmos w=0.3u l=0.5u ng=1 m=2
MM35 Vspike net5 VSS VSS sg13_hv_nmos w=0.3u l=0.5u ng=1 m=2
MM15 net6 net4 VDD VDD sg13_hv_pmos w=1u l=0.5u ng=1 m=2
MM24 net5 net6 VDD VDD sg13_hv_pmos w=1u l=0.5u ng=1 m=2
MM31 Vspike net5 VDD VDD sg13_hv_pmos w=1u l=0.5u ng=1 m=2
MM2 net8 vm VDD VDD sg13_hv_pmos w=0.5u l=8u ng=1 m=2
MM10 net7 net4 net8 VDD sg13_hv_pmos w=1u l=0.5u ng=1 m=2
MM9 net4 vm net7 VSS sg13_hv_nmos w=0.3u l=8u ng=1 m=2
MM14 net1 IIN VSS VSS sg13_hv_nmos w=0.5u l=0.5u ng=1 m=2
MM18 IIN IIN VSS VSS sg13_hv_nmos w=0.5u l=0.5u ng=1 m=2
MM21 vx net3 VDD VDD sg13_hv_pmos w=0.5u l=8u ng=1 m=2
MM13 vm net10 net9 VDD sg13_hv_pmos w=0.3u l=8u ng=1 m=2
MM23 net10 EN VSS VSS sg13_hv_nmos w=0.3u l=0.5u ng=1 m=2
MM25 net10 EN VDD VDD sg13_hv_pmos w=1u l=0.5u ng=1 m=2
MM27 vm Vspike net11 VSS sg13_hv_nmos w=0.95u l=1.1u ng=1 m=2
MM28 net11 Vspike net13 VSS sg13_hv_nmos w=0.95u l=1.1u ng=1 m=2
MM29 net13 Vspike net12 VSS sg13_hv_nmos w=0.95u l=1.1u ng=1 m=2
MM30 net12 Vspike VSS VSS sg13_hv_nmos w=0.95u l=1.1u ng=1 m=2
.ends


* expanding   symbol:  FB_system.sym # of pins=4
** sym_path: /foss/designs/ihp_INI_project/INI_Block/FB_system.sym
** sch_path: /foss/designs/ihp_INI_project/INI_Block/FB_system.sch
.subckt FB_system vdda out V_mem vssa
*.PININFO out:O V_mem:B vssa:B vdda:B
MMmirr Vmir Vmir vdda vdda sg13_hv_pmos w=4u l=2u ng=4
MMmirl4 V_mem Vmir net1 vdda sg13_hv_pmos w=1u l=2u ng=1
MMthr out V_mem Vmir vdda sg13_hv_pmos w=4u l=2u ng=4
MMmem1 out V_mem net2 vssa sg13_hv_nmos w=1u l=2u ng=1 m=2
MMmirl3 net1 Vmir net3 vdda sg13_hv_pmos w=1u l=2u ng=1
MMmirl2 net3 Vmir net4 vdda sg13_hv_pmos w=1u l=2u ng=1
MMmirl1 net4 Vmir vdda vdda sg13_hv_pmos w=1u l=2u ng=1
MMmem2 net2 V_mem net5 vssa sg13_hv_nmos w=1u l=2u ng=1 m=2
MMmem3 net5 V_mem net6 vssa sg13_hv_nmos w=1u l=2u ng=1 m=2
MMmem4 net6 V_mem vssa vssa sg13_hv_nmos w=1u l=2u ng=1 m=2
MMdum6 out vdda vdda vdda sg13_hv_pmos w=1u l=2u ng=1 m=2
MMdum7 V_mem vdda vdda vdda sg13_hv_pmos w=1u l=2u ng=1
MMdum1 vssa vssa out vssa sg13_hv_nmos w=2u l=2u ng=2
.ends


* expanding   symbol:  ADAP_system.sym # of pins=8
** sym_path: /foss/designs/ihp_INI_project/INI_Block/ADAP_system.sym
** sch_path: /foss/designs/ihp_INI_project/INI_Block/ADAP_system.sch
.subckt ADAP_system vdda ackext_VABI DPI_capabias_VP gain_VPI in_UNO DPI_gain_VNI DPI_lk_VNI vssa
*.PININFO ackext_VABI:I gain_VPI:I DPI_gain_VNI:I DPI_lk_VNI:I vssa:B vdda:B DPI_capabias_VP:B in_UNO:B
MM21 net1 gain_VPI net_DM1_SM21 vdda sg13_hv_pmos w=4u l=4u ng=2 m=4
MM18 in_UNO DPI_capabias_VP vssa vssa sg13_hv_nmos w=4u l=4u ng=2 m=4
MM1 net_DM1_SM21 ackext_VABI vdda vdda sg13_hv_pmos w=1.2u l=4u ng=4
Xdpi2 net1 vdda DPI_capabias_VP DPI_gain_VNI vssa DPI_lk_VNI DPI_gain
MMdum5 net_DM1_SM21 vdda vdda vdda sg13_hv_pmos w=8.6u l=2.75u ng=1
.ends


* expanding   symbol:  REF_system.sym # of pins=7
** sym_path: /foss/designs/ihp_INI_project/INI_Block/REF_system.sym
** sch_path: /foss/designs/ihp_INI_project/INI_Block/REF_system.sch
.subckt REF_system ack_VABI mem_VNO req_VABI capabias_VPN vssa lk_VPI vdda
*.PININFO lk_VPI:I req_VABI:I ack_VABI:I capabias_VPN:B mem_VNO:O vssa:B vdda:B
MM10 capabias_VPN req_VABI net2 vdda sg13_hv_pmos w=1u l=0.5u ng=1
MM11 capabias_VPN req_VABI net1 vssa sg13_hv_nmos w=1u l=0.5u ng=1
MM12 net2 ack_VABI vdda vdda sg13_hv_pmos w=1u l=0.5u ng=1
MM13 mem_VNO capabias_VPN vssa vssa sg13_hv_nmos w=1u l=0.5u ng=1
MM14 net1 lk_VPI vssa vssa sg13_hv_nmos w=4u l=4u ng=2 m=4
.ends


* expanding   symbol:  pulse_extender_V2.sym # of pins=6
** sym_path: /foss/designs/ihp_INI_project/INI_Block/pulse_extender_V2.sym
** sch_path: /foss/designs/ihp_INI_project/INI_Block/pulse_extender_V2.sch
.subckt pulse_extender_V2 vdda vssa out_VAO in_VAI pwbias_VPI capa_VP
*.PININFO out_VAO:O pwbias_VPI:I in_VAI:I capa_VP:B vssa:B vdda:B
MMp1 out_VAO capa_VP vdda vdda sg13_hv_pmos w=4u l=2u ng=1
MMn1 out_VAO capa_VP vssa vssa sg13_hv_nmos w=4u l=2u ng=1
MMn4 capa_VP in_VAI vssa vssa sg13_hv_nmos w=4u l=2u ng=1
MMstarve4 capa_VP pwbias_VPI vdda vdda sg13_hv_pmos w=4u l=2u ng=1
MMp3 capa_VP out_VAO vdda vdda sg13_hv_pmos w=4u l=2u ng=1
.ends


* expanding   symbol:  inv.sym # of pins=4
** sym_path: /foss/designs/ihp_INI_project/INI_Block/inv.sym
** sch_path: /foss/designs/ihp_INI_project/INI_Block/inv.sch
.subckt inv vdda out in vssa
*.PININFO in:I out:O vssa:B vdda:B
MM1 out in vdda vdda sg13_hv_pmos w=4u l=0.5u ng=1
MM2 out in vssa vssa sg13_hv_nmos w=4u l=0.5u ng=1
.ends


* expanding   symbol:  inv_hc.sym # of pins=4
** sym_path: /foss/designs/ihp_INI_project/INI_Block/inv_hc.sym
** sch_path: /foss/designs/ihp_INI_project/INI_Block/inv_hc.sch
.subckt inv_hc vdda out in vssa
*.PININFO in:I out:O vssa:B vdda:B
MM1 out in vdda vdda sg13_hv_pmos w=10u l=0.5u ng=1
MM2 out in vssa vssa sg13_hv_nmos w=10u l=0.5u ng=1
.ends


* expanding   symbol:  DPI_gain.sym # of pins=6
** sym_path: /foss/designs/ihp_INI_project/INI_Block/DPI_gain.sym
** sch_path: /foss/designs/ihp_INI_project/INI_Block/DPI_gain.sch
.subckt DPI_gain in_UI vdda capabias_VPN gain_VNI vssa lk_VNI
*.PININFO gain_VNI:I lk_VNI:I capabias_VPN:B vssa:B vdda:B in_UI:B
MMdifl vssa gain_VNI in_UI vdda sg13_hv_pmos w=2u l=2u ng=2 m=8
MMdifr capabias_VPN capabias_VPN in_UI vdda sg13_hv_pmos w=2u l=2u ng=2 m=8
MMtau capabias_VPN lk_VNI vssa vssa sg13_hv_nmos w=4u l=4u ng=2 m=4
MMdum2 in_UI vdda vdda vdda sg13_hv_pmos w=1u l=2u ng=1 m=8
.ends


* expanding   symbol:  OTA_b.sym # of pins=6
** sym_path: /foss/designs/ihp_INI_project/INI_Block/OTA_b.sym
** sch_path: /foss/designs/ihp_INI_project/INI_Block/OTA_b.sch
.subckt OTA_b VDDA VBP INN INP VOP VSSA
*.PININFO VBP:I INP:I INN:I VSSA:B VDDA:B VOP:O
MM13 n1 n1 VSSA VSSA sg13_hv_nmos w=2u l=0.5u ng=2 m=2
MM1 n2 n2 VSSA VSSA sg13_hv_nmos w=2u l=0.5u ng=2 m=2
MM12 n1 INN vtail VDDA sg13_hv_pmos w=16u l=0.5u ng=2 m=4
MM3 n2 INP vtail VDDA sg13_hv_pmos w=16u l=0.5u ng=2 m=4
MM4 vtail VBP VDDA VDDA sg13_hv_pmos w=12u l=500n ng=2 m=8
MM5 vpmirr vpmirr VDDA VDDA sg13_hv_pmos w=2u l=500n ng=2 m=4
MM6 vout1stage vpmirr VDDA VDDA sg13_hv_pmos w=2u l=500n ng=2 m=4
MM7 vout1stage n1 VSSA VSSA sg13_hv_nmos w=1.75u l=0.5u ng=2 m=4
MM8 VOP vout1stage VSSA VSSA sg13_hv_nmos w=4u l=0.5u ng=4 m=4
MM9 VOP VBP VDDA VDDA sg13_hv_pmos w=4u l=0.5u ng=2
MM10 vpmirr n2 VSSA VSSA sg13_hv_nmos w=2u l=0.5u ng=2 m=4
R1 net1 vout1stage 49.84k
*  C1 -  cap_mfringe  IS MISSING !!!!
.ends


* expanding   symbol:  DecadeDivider_2.sym # of pins=5
** sym_path: /foss/designs/ihp_INI_project/INI_Block/DecadeDivider_2.sym
** sch_path: /foss/designs/ihp_INI_project/INI_Block/DecadeDivider_2.sch
.subckt DecadeDivider_2 VDDA IREF IREF_CORE[0] IOUT VSSA
*.PININFO VSSA:B VDDA:B IREF:B IREF_CORE[0]:B IOUT:B
x1[2] VDDA IREF IREF VSSA IREF_CORE[0] ISOURCE
x1[1] VDDA IREF IREF VSSA IREF_CORE[0] ISOURCE
x10[2] VDDA IREF IREF VSSA Vbn ISOURCE
x10[1] VDDA IREF IREF VSSA Vbn ISOURCE
x11[20] VDDA IREF IREF VSSA IREF ISOURCE
x11[19] VDDA IREF IREF VSSA IREF ISOURCE
x11[18] VDDA IREF IREF VSSA IREF ISOURCE
x11[17] VDDA IREF IREF VSSA IREF ISOURCE
x11[16] VDDA IREF IREF VSSA IREF ISOURCE
x11[15] VDDA IREF IREF VSSA IREF ISOURCE
x11[14] VDDA IREF IREF VSSA IREF ISOURCE
x11[13] VDDA IREF IREF VSSA IREF ISOURCE
x11[12] VDDA IREF IREF VSSA IREF ISOURCE
x11[11] VDDA IREF IREF VSSA IREF ISOURCE
x11[10] VDDA IREF IREF VSSA IREF ISOURCE
x11[9] VDDA IREF IREF VSSA IREF ISOURCE
x11[8] VDDA IREF IREF VSSA IREF ISOURCE
x11[7] VDDA IREF IREF VSSA IREF ISOURCE
x11[6] VDDA IREF IREF VSSA IREF ISOURCE
x11[5] VDDA IREF IREF VSSA IREF ISOURCE
x11[4] VDDA IREF IREF VSSA IREF ISOURCE
x11[3] VDDA IREF IREF VSSA IREF ISOURCE
x11[2] VDDA IREF IREF VSSA IREF ISOURCE
x11[1] VDDA IREF IREF VSSA IREF ISOURCE
x12[15] Vbn VSSA Vbn Vbn ISINK
x12[14] Vbn VSSA Vbn Vbn ISINK
x12[13] Vbn VSSA Vbn Vbn ISINK
x12[12] Vbn VSSA Vbn Vbn ISINK
x12[11] Vbn VSSA Vbn Vbn ISINK
x12[10] Vbn VSSA Vbn Vbn ISINK
x12[9] Vbn VSSA Vbn Vbn ISINK
x12[8] Vbn VSSA Vbn Vbn ISINK
x12[7] Vbn VSSA Vbn Vbn ISINK
x12[6] Vbn VSSA Vbn Vbn ISINK
x12[5] Vbn VSSA Vbn Vbn ISINK
x12[4] Vbn VSSA Vbn Vbn ISINK
x12[3] Vbn VSSA Vbn Vbn ISINK
x12[2] Vbn VSSA Vbn Vbn ISINK
x12[1] Vbn VSSA Vbn Vbn ISINK
x13[15] Vbn VSSA Vbn IOUT ISINK
x13[14] Vbn VSSA Vbn IOUT ISINK
x13[13] Vbn VSSA Vbn IOUT ISINK
x13[12] Vbn VSSA Vbn IOUT ISINK
x13[11] Vbn VSSA Vbn IOUT ISINK
x13[10] Vbn VSSA Vbn IOUT ISINK
x13[9] Vbn VSSA Vbn IOUT ISINK
x13[8] Vbn VSSA Vbn IOUT ISINK
x13[7] Vbn VSSA Vbn IOUT ISINK
x13[6] Vbn VSSA Vbn IOUT ISINK
x13[5] Vbn VSSA Vbn IOUT ISINK
x13[4] Vbn VSSA Vbn IOUT ISINK
x13[3] Vbn VSSA Vbn IOUT ISINK
x13[2] Vbn VSSA Vbn IOUT ISINK
x13[1] Vbn VSSA Vbn IOUT ISINK
*  C1 -  cap_mfringe  IS MISSING !!!!
.ends


* expanding   symbol:  DecadeDividerAux.sym # of pins=4
** sym_path: /foss/designs/ihp_INI_project/INI_Block/DecadeDividerAux.sym
** sch_path: /foss/designs/ihp_INI_project/INI_Block/DecadeDividerAux.sch
.subckt DecadeDividerAux VDDA VBIAS IREF_CORE[0] VSSA
*.PININFO VSSA:B VDDA:B VBIAS:B IREF_CORE[0]:B
x1[20] VDDA VBIAS VBIAS VSSA IREF_CORE[0] ISOURCE
x1[19] VDDA VBIAS VBIAS VSSA IREF_CORE[0] ISOURCE
x1[18] VDDA VBIAS VBIAS VSSA IREF_CORE[0] ISOURCE
x1[17] VDDA VBIAS VBIAS VSSA IREF_CORE[0] ISOURCE
x1[16] VDDA VBIAS VBIAS VSSA IREF_CORE[0] ISOURCE
x1[15] VDDA VBIAS VBIAS VSSA IREF_CORE[0] ISOURCE
x1[14] VDDA VBIAS VBIAS VSSA IREF_CORE[0] ISOURCE
x1[13] VDDA VBIAS VBIAS VSSA IREF_CORE[0] ISOURCE
x1[12] VDDA VBIAS VBIAS VSSA IREF_CORE[0] ISOURCE
x1[11] VDDA VBIAS VBIAS VSSA IREF_CORE[0] ISOURCE
x1[10] VDDA VBIAS VBIAS VSSA IREF_CORE[0] ISOURCE
x1[9] VDDA VBIAS VBIAS VSSA IREF_CORE[0] ISOURCE
x1[8] VDDA VBIAS VBIAS VSSA IREF_CORE[0] ISOURCE
x1[7] VDDA VBIAS VBIAS VSSA IREF_CORE[0] ISOURCE
x1[6] VDDA VBIAS VBIAS VSSA IREF_CORE[0] ISOURCE
x1[5] VDDA VBIAS VBIAS VSSA IREF_CORE[0] ISOURCE
x1[4] VDDA VBIAS VBIAS VSSA IREF_CORE[0] ISOURCE
x1[3] VDDA VBIAS VBIAS VSSA IREF_CORE[0] ISOURCE
x1[2] VDDA VBIAS VBIAS VSSA IREF_CORE[0] ISOURCE
x1[1] VDDA VBIAS VBIAS VSSA IREF_CORE[0] ISOURCE
x2[20] VDDA VBIAS VBIAS VSSA IREF_CORE[1] ISOURCE
x2[19] VDDA VBIAS VBIAS VSSA IREF_CORE[1] ISOURCE
x2[18] VDDA VBIAS VBIAS VSSA IREF_CORE[1] ISOURCE
x2[17] VDDA VBIAS VBIAS VSSA IREF_CORE[1] ISOURCE
x2[16] VDDA VBIAS VBIAS VSSA IREF_CORE[1] ISOURCE
x2[15] VDDA VBIAS VBIAS VSSA IREF_CORE[1] ISOURCE
x2[14] VDDA VBIAS VBIAS VSSA IREF_CORE[1] ISOURCE
x2[13] VDDA VBIAS VBIAS VSSA IREF_CORE[1] ISOURCE
x2[12] VDDA VBIAS VBIAS VSSA IREF_CORE[1] ISOURCE
x2[11] VDDA VBIAS VBIAS VSSA IREF_CORE[1] ISOURCE
x2[10] VDDA VBIAS VBIAS VSSA IREF_CORE[1] ISOURCE
x2[9] VDDA VBIAS VBIAS VSSA IREF_CORE[1] ISOURCE
x2[8] VDDA VBIAS VBIAS VSSA IREF_CORE[1] ISOURCE
x2[7] VDDA VBIAS VBIAS VSSA IREF_CORE[1] ISOURCE
x2[6] VDDA VBIAS VBIAS VSSA IREF_CORE[1] ISOURCE